<flows>
<flow id="flow0" from="223300795#0 " to="121815695#4 " begin="0" end="1000" no="500" period="3" />
<flow id="flow1" from="446594494#0 " to="407593363#1 " begin="0" end="1000" no="500" period="3"/>
<flow id="flow2" from="448736027#0 " to="23321898#2 " begin="0" end="1000" no="500" period="3"/>
<flow id="flow3" from="449284320#0 " to="121815661#1 " begin="0" end="1000" no="500" period="3"/>
<flow id="flow4" from="11490172#0 " to="447281177#3" begin="0" end="1000" no="500" period="3"/>
<flow id="flow5" from="446594494#0 " to="7981319#2" begin="0" end="1000" no="500" period="3"/>
<flow id="flow6" from="23321897#0 " to="223300796" begin="0" end="1000" no="500" period="3"/>
<flow id="flow7" from="449284320#0 " to="20891186#2" begin="0" end="1000" no="500" period="3"/>
<flow id="flow8" from="11490172#0 " to="8000232#2" begin="0" end="1000" no="500" period="3"/>
<flow id="flow9" from="449284320#0 " to="20891194#3" begin="0" end="1000" no="500" period="3"/>
<flow id="flow10" from="11490172#0 " to="448533599#5" begin="0" end="1000" no="500" period="3"/>
<flow id="flow11" from="449284320#0 " to="121815695#4" begin="0" end="1000" no="500" period="3"/>
</flows>
