<routes>
        <vType id="typePassenger" accel="0.8" decel="4.5" sigma="0.5" length="5" minGap="2.5" maxSpeed="16.67" guiShape="passenger"/>
        <vType id="typeBus" accel="0.8" decel="4.5" sigma="0.5" length="10" minGap="3" maxSpeed="25" guiShape="bus"/>

        <route id="right-down" edges="2i 3o" />
        <route id="left-left"  edges="2i 1o" />
        <route id="down-left"  edges="4i 1o" />
        <route id="down-right" edges="4i 2o" />
        <route id="down-down"  edges="4i 3o" />
    <vehicle id="0" type="typePassenger" route="down-down" depart="0" />
    <vehicle id="1" type="typePassenger" route="down-down" depart="0" />
    <vehicle id="2" type="typePassenger" route="down-down" depart="0" />
    <vehicle id="3" type="typePassenger" route="down-left" depart="1" />
    <vehicle id="4" type="typePassenger" route="down-down" depart="1" />
    <vehicle id="5" type="typePassenger" route="down-down" depart="1" />
    <vehicle id="6" type="typePassenger" route="down-down" depart="1" />
    <vehicle id="7" type="typePassenger" route="down-down" depart="2" />
    <vehicle id="8" type="typePassenger" route="down-down" depart="2" />
    <vehicle id="9" type="typeBus" route="right-down" depart="2" />
    <vehicle id="10" type="typePassenger" route="down-down" depart="2" />
    <vehicle id="11" type="typePassenger" route="down-down" depart="3" />
    <vehicle id="12" type="typeBus" route="right-down" depart="3" />
    <vehicle id="13" type="typePassenger" route="down-down" depart="3" />
    <vehicle id="14" type="typePassenger" route="down-down" depart="3" />
    <vehicle id="15" type="typePassenger" route="down-down" depart="4" />
    <vehicle id="16" type="typePassenger" route="down-down" depart="4" />
    <vehicle id="17" type="typePassenger" route="down-down" depart="4" />
    <vehicle id="18" type="typePassenger" route="down-down" depart="5" />
    <vehicle id="19" type="typePassenger" route="left-left" depart="5" />
    <vehicle id="20" type="typePassenger" route="down-down" depart="5" />
    <vehicle id="21" type="typePassenger" route="down-down" depart="5" />
    <vehicle id="22" type="typePassenger" route="down-down" depart="6" />
    <vehicle id="23" type="typePassenger" route="down-down" depart="6" />
    <vehicle id="24" type="typePassenger" route="down-left" depart="6" />
    <vehicle id="25" type="typePassenger" route="down-down" depart="6" />
    <vehicle id="26" type="typePassenger" route="down-down" depart="7" />
    <vehicle id="27" type="typePassenger" route="down-down" depart="7" />
    <vehicle id="28" type="typePassenger" route="down-down" depart="7" />
    <vehicle id="29" type="typePassenger" route="down-left" depart="8" />
    <vehicle id="30" type="typePassenger" route="down-down" depart="8" />
    <vehicle id="31" type="typeBus" route="right-down" depart="8" />
    <vehicle id="32" type="typePassenger" route="down-down" depart="8" />
    <vehicle id="33" type="typePassenger" route="down-down" depart="8" />
    <vehicle id="34" type="typePassenger" route="down-down" depart="9" />
    <vehicle id="35" type="typeBus" route="right-down" depart="9" />
    <vehicle id="36" type="typePassenger" route="down-right" depart="9" />
    <vehicle id="37" type="typePassenger" route="down-down" depart="9" />
    <vehicle id="38" type="typePassenger" route="down-down" depart="9" />
    <vehicle id="39" type="typePassenger" route="down-down" depart="10" />
    <vehicle id="40" type="typePassenger" route="down-down" depart="10" />
    <vehicle id="41" type="typeBus" route="right-down" depart="10" />
    <vehicle id="42" type="typePassenger" route="down-down" depart="10" />
    <vehicle id="43" type="typePassenger" route="left-left" depart="11" />
    <vehicle id="44" type="typePassenger" route="down-down" depart="11" />
    <vehicle id="45" type="typePassenger" route="left-left" depart="11" />
    <vehicle id="46" type="typePassenger" route="down-down" depart="11" />
    <vehicle id="47" type="typePassenger" route="down-down" depart="11" />
    <vehicle id="48" type="typePassenger" route="down-down" depart="12" />
    <vehicle id="49" type="typePassenger" route="down-down" depart="12" />
    <vehicle id="50" type="typePassenger" route="down-down" depart="12" />
    <vehicle id="51" type="typePassenger" route="down-down" depart="13" />
    <vehicle id="52" type="typePassenger" route="down-down" depart="13" />
    <vehicle id="53" type="typePassenger" route="down-down" depart="13" />
    <vehicle id="54" type="typeBus" route="right-down" depart="14" />
    <vehicle id="55" type="typePassenger" route="down-down" depart="14" />
    <vehicle id="56" type="typePassenger" route="down-left" depart="14" />
    <vehicle id="57" type="typePassenger" route="down-down" depart="14" />
    <vehicle id="58" type="typePassenger" route="down-down" depart="14" />
    <vehicle id="59" type="typePassenger" route="down-down" depart="15" />
    <vehicle id="60" type="typePassenger" route="down-down" depart="15" />
    <vehicle id="61" type="typePassenger" route="down-left" depart="15" />
    <vehicle id="62" type="typePassenger" route="down-down" depart="15" />
    <vehicle id="63" type="typePassenger" route="down-left" depart="16" />
    <vehicle id="64" type="typePassenger" route="down-down" depart="16" />
    <vehicle id="65" type="typePassenger" route="down-down" depart="16" />
    <vehicle id="66" type="typePassenger" route="down-down" depart="16" />
    <vehicle id="67" type="typePassenger" route="down-down" depart="17" />
    <vehicle id="68" type="typePassenger" route="left-left" depart="17" />
    <vehicle id="69" type="typePassenger" route="down-down" depart="17" />
    <vehicle id="70" type="typePassenger" route="down-down" depart="17" />
    <vehicle id="71" type="typePassenger" route="down-right" depart="18" />
    <vehicle id="72" type="typePassenger" route="down-down" depart="18" />
    <vehicle id="73" type="typePassenger" route="down-down" depart="18" />
    <vehicle id="74" type="typePassenger" route="down-down" depart="18" />
    <vehicle id="75" type="typePassenger" route="down-down" depart="19" />
    <vehicle id="76" type="typePassenger" route="down-down" depart="19" />
    <vehicle id="77" type="typePassenger" route="down-down" depart="19" />
    <vehicle id="78" type="typePassenger" route="down-down" depart="20" />
    <vehicle id="79" type="typePassenger" route="down-down" depart="20" />
    <vehicle id="80" type="typePassenger" route="down-down" depart="20" />
    <vehicle id="81" type="typePassenger" route="down-down" depart="21" />
    <vehicle id="82" type="typePassenger" route="down-right" depart="21" />
    <vehicle id="83" type="typePassenger" route="down-down" depart="21" />
    <vehicle id="84" type="typePassenger" route="down-down" depart="21" />
    <vehicle id="85" type="typePassenger" route="down-down" depart="22" />
    <vehicle id="86" type="typePassenger" route="down-down" depart="22" />
    <vehicle id="87" type="typePassenger" route="left-left" depart="22" />
    <vehicle id="88" type="typePassenger" route="down-down" depart="22" />
    <vehicle id="89" type="typePassenger" route="down-down" depart="23" />
    <vehicle id="90" type="typePassenger" route="down-down" depart="23" />
    <vehicle id="91" type="typePassenger" route="down-right" depart="23" />
    <vehicle id="92" type="typePassenger" route="down-down" depart="23" />
    <vehicle id="93" type="typePassenger" route="down-down" depart="24" />
    <vehicle id="94" type="typeBus" route="right-down" depart="24" />
    <vehicle id="95" type="typePassenger" route="down-down" depart="24" />
    <vehicle id="96" type="typeBus" route="right-down" depart="24" />
    <vehicle id="97" type="typePassenger" route="down-down" depart="24" />
    <vehicle id="98" type="typePassenger" route="down-down" depart="25" />
    <vehicle id="99" type="typePassenger" route="down-down" depart="25" />
    <vehicle id="100" type="typePassenger" route="down-down" depart="25" />
    <vehicle id="101" type="typeBus" route="right-down" depart="26" />
    <vehicle id="102" type="typePassenger" route="down-left" depart="26" />
    <vehicle id="103" type="typePassenger" route="down-down" depart="26" />
    <vehicle id="104" type="typePassenger" route="down-down" depart="26" />
    <vehicle id="105" type="typePassenger" route="down-left" depart="26" />
    <vehicle id="106" type="typePassenger" route="down-down" depart="26" />
    <vehicle id="107" type="typePassenger" route="down-down" depart="27" />
    <vehicle id="108" type="typePassenger" route="down-down" depart="27" />
    <vehicle id="109" type="typePassenger" route="down-down" depart="27" />
    <vehicle id="110" type="typePassenger" route="down-down" depart="28" />
    <vehicle id="111" type="typePassenger" route="down-down" depart="28" />
    <vehicle id="112" type="typePassenger" route="left-left" depart="28" />
    <vehicle id="113" type="typePassenger" route="down-down" depart="28" />
    <vehicle id="114" type="typePassenger" route="down-down" depart="29" />
    <vehicle id="115" type="typePassenger" route="down-down" depart="29" />
    <vehicle id="116" type="typePassenger" route="down-down" depart="29" />
    <vehicle id="117" type="typePassenger" route="left-left" depart="30" />
    <vehicle id="118" type="typePassenger" route="down-down" depart="30" />
    <vehicle id="119" type="typePassenger" route="down-down" depart="30" />
    <vehicle id="120" type="typePassenger" route="down-down" depart="30" />
    <vehicle id="121" type="typePassenger" route="down-down" depart="31" />
    <vehicle id="122" type="typePassenger" route="down-down" depart="31" />
    <vehicle id="123" type="typePassenger" route="down-down" depart="31" />
    <vehicle id="124" type="typePassenger" route="down-down" depart="32" />
    <vehicle id="125" type="typeBus" route="right-down" depart="32" />
    <vehicle id="126" type="typePassenger" route="down-down" depart="32" />
    <vehicle id="127" type="typePassenger" route="down-left" depart="32" />
    <vehicle id="128" type="typePassenger" route="down-down" depart="32" />
    <vehicle id="129" type="typePassenger" route="down-down" depart="33" />
    <vehicle id="130" type="typePassenger" route="down-down" depart="33" />
    <vehicle id="131" type="typePassenger" route="down-down" depart="33" />
    <vehicle id="132" type="typePassenger" route="down-down" depart="34" />
    <vehicle id="133" type="typePassenger" route="down-down" depart="34" />
    <vehicle id="134" type="typePassenger" route="left-left" depart="34" />
    <vehicle id="135" type="typePassenger" route="down-left" depart="34" />
    <vehicle id="136" type="typePassenger" route="down-down" depart="34" />
    <vehicle id="137" type="typePassenger" route="down-down" depart="35" />
    <vehicle id="138" type="typePassenger" route="down-down" depart="35" />
    <vehicle id="139" type="typePassenger" route="down-down" depart="35" />
    <vehicle id="140" type="typePassenger" route="down-down" depart="36" />
    <vehicle id="141" type="typePassenger" route="down-down" depart="36" />
    <vehicle id="142" type="typePassenger" route="down-down" depart="36" />
    <vehicle id="143" type="typePassenger" route="down-down" depart="37" />
    <vehicle id="144" type="typePassenger" route="down-down" depart="37" />
    <vehicle id="145" type="typeBus" route="right-down" depart="37" />
    <vehicle id="146" type="typePassenger" route="down-down" depart="37" />
    <vehicle id="147" type="typePassenger" route="down-down" depart="38" />
    <vehicle id="148" type="typeBus" route="right-down" depart="38" />
    <vehicle id="149" type="typePassenger" route="down-down" depart="38" />
    <vehicle id="150" type="typePassenger" route="down-down" depart="38" />
    <vehicle id="151" type="typePassenger" route="down-down" depart="39" />
    <vehicle id="152" type="typePassenger" route="down-right" depart="39" />
    <vehicle id="153" type="typePassenger" route="down-down" depart="39" />
    <vehicle id="154" type="typePassenger" route="down-down" depart="39" />
    <vehicle id="155" type="typePassenger" route="down-down" depart="40" />
    <vehicle id="156" type="typePassenger" route="down-down" depart="40" />
    <vehicle id="157" type="typePassenger" route="down-down" depart="40" />
    <vehicle id="158" type="typePassenger" route="down-down" depart="41" />
    <vehicle id="159" type="typePassenger" route="down-down" depart="41" />
    <vehicle id="160" type="typePassenger" route="down-down" depart="41" />
    <vehicle id="161" type="typePassenger" route="down-down" depart="42" />
    <vehicle id="162" type="typePassenger" route="down-down" depart="42" />
    <vehicle id="163" type="typePassenger" route="down-down" depart="42" />
    <vehicle id="164" type="typePassenger" route="down-down" depart="43" />
    <vehicle id="165" type="typeBus" route="right-down" depart="43" />
    <vehicle id="166" type="typePassenger" route="down-left" depart="43" />
    <vehicle id="167" type="typePassenger" route="down-down" depart="43" />
    <vehicle id="168" type="typeBus" route="right-down" depart="43" />
    <vehicle id="169" type="typePassenger" route="down-down" depart="43" />
    <vehicle id="170" type="typePassenger" route="down-down" depart="44" />
    <vehicle id="171" type="typePassenger" route="down-down" depart="44" />
    <vehicle id="172" type="typePassenger" route="down-down" depart="44" />
    <vehicle id="173" type="typePassenger" route="down-down" depart="45" />
    <vehicle id="174" type="typePassenger" route="down-down" depart="45" />
    <vehicle id="175" type="typePassenger" route="left-left" depart="45" />
    <vehicle id="176" type="typePassenger" route="down-down" depart="45" />
    <vehicle id="177" type="typePassenger" route="down-down" depart="46" />
    <vehicle id="178" type="typePassenger" route="down-down" depart="46" />
    <vehicle id="179" type="typePassenger" route="down-down" depart="46" />
    <vehicle id="180" type="typePassenger" route="down-down" depart="47" />
    <vehicle id="181" type="typePassenger" route="down-down" depart="47" />
    <vehicle id="182" type="typePassenger" route="left-left" depart="47" />
    <vehicle id="183" type="typePassenger" route="down-down" depart="47" />
    <vehicle id="184" type="typePassenger" route="down-down" depart="48" />
    <vehicle id="185" type="typePassenger" route="down-left" depart="48" />
    <vehicle id="186" type="typePassenger" route="down-down" depart="48" />
    <vehicle id="187" type="typePassenger" route="down-down" depart="48" />
    <vehicle id="188" type="typePassenger" route="down-down" depart="49" />
    <vehicle id="189" type="typePassenger" route="down-down" depart="49" />
    <vehicle id="190" type="typePassenger" route="down-down" depart="49" />
    <vehicle id="191" type="typePassenger" route="down-down" depart="50" />
    <vehicle id="192" type="typePassenger" route="down-down" depart="50" />
    <vehicle id="193" type="typePassenger" route="left-left" depart="50" />
    <vehicle id="194" type="typePassenger" route="down-down" depart="50" />
    <vehicle id="195" type="typePassenger" route="down-down" depart="51" />
    <vehicle id="196" type="typePassenger" route="down-down" depart="51" />
    <vehicle id="197" type="typePassenger" route="down-down" depart="51" />
    <vehicle id="198" type="typePassenger" route="down-down" depart="52" />
    <vehicle id="199" type="typePassenger" route="down-down" depart="52" />
    <vehicle id="200" type="typePassenger" route="down-down" depart="52" />
    <vehicle id="201" type="typePassenger" route="left-left" depart="53" />
    <vehicle id="202" type="typePassenger" route="down-down" depart="53" />
    <vehicle id="203" type="typePassenger" route="down-down" depart="53" />
    <vehicle id="204" type="typePassenger" route="down-left" depart="53" />
    <vehicle id="205" type="typePassenger" route="down-down" depart="53" />
    <vehicle id="206" type="typePassenger" route="down-down" depart="54" />
    <vehicle id="207" type="typePassenger" route="down-down" depart="54" />
    <vehicle id="208" type="typePassenger" route="down-down" depart="54" />
    <vehicle id="209" type="typePassenger" route="down-down" depart="55" />
    <vehicle id="210" type="typePassenger" route="left-left" depart="55" />
    <vehicle id="211" type="typePassenger" route="down-down" depart="55" />
    <vehicle id="212" type="typePassenger" route="down-down" depart="55" />
    <vehicle id="213" type="typePassenger" route="down-left" depart="56" />
    <vehicle id="214" type="typePassenger" route="down-down" depart="56" />
    <vehicle id="215" type="typePassenger" route="down-left" depart="56" />
    <vehicle id="216" type="typePassenger" route="down-down" depart="56" />
    <vehicle id="217" type="typePassenger" route="down-down" depart="56" />
    <vehicle id="218" type="typePassenger" route="left-left" depart="57" />
    <vehicle id="219" type="typePassenger" route="down-down" depart="57" />
    <vehicle id="220" type="typePassenger" route="down-down" depart="57" />
    <vehicle id="221" type="typePassenger" route="down-down" depart="57" />
    <vehicle id="222" type="typePassenger" route="down-left" depart="58" />
    <vehicle id="223" type="typePassenger" route="down-down" depart="58" />
    <vehicle id="224" type="typePassenger" route="down-down" depart="58" />
    <vehicle id="225" type="typePassenger" route="down-down" depart="58" />
    <vehicle id="226" type="typePassenger" route="down-down" depart="59" />
    <vehicle id="227" type="typePassenger" route="down-down" depart="59" />
    <vehicle id="228" type="typeBus" route="right-down" depart="59" />
    <vehicle id="229" type="typePassenger" route="down-down" depart="59" />
    <vehicle id="230" type="typePassenger" route="left-left" depart="60" />
    <vehicle id="231" type="typePassenger" route="down-down" depart="60" />
    <vehicle id="232" type="typePassenger" route="down-down" depart="60" />
    <vehicle id="233" type="typePassenger" route="down-down" depart="60" />
    <vehicle id="234" type="typePassenger" route="down-down" depart="61" />
    <vehicle id="235" type="typePassenger" route="down-left" depart="61" />
    <vehicle id="236" type="typePassenger" route="down-down" depart="61" />
    <vehicle id="237" type="typePassenger" route="down-down" depart="61" />
    <vehicle id="238" type="typePassenger" route="down-down" depart="62" />
    <vehicle id="239" type="typePassenger" route="down-down" depart="62" />
    <vehicle id="240" type="typePassenger" route="down-right" depart="62" />
    <vehicle id="241" type="typePassenger" route="down-down" depart="62" />
    <vehicle id="242" type="typePassenger" route="down-down" depart="63" />
    <vehicle id="243" type="typePassenger" route="down-down" depart="63" />
    <vehicle id="244" type="typePassenger" route="down-down" depart="63" />
    <vehicle id="245" type="typePassenger" route="down-down" depart="64" />
    <vehicle id="246" type="typePassenger" route="down-right" depart="64" />
    <vehicle id="247" type="typePassenger" route="down-down" depart="64" />
    <vehicle id="248" type="typePassenger" route="down-down" depart="64" />
    <vehicle id="249" type="typePassenger" route="down-left" depart="65" />
    <vehicle id="250" type="typePassenger" route="down-down" depart="65" />
    <vehicle id="251" type="typePassenger" route="down-down" depart="65" />
    <vehicle id="252" type="typePassenger" route="down-down" depart="65" />
    <vehicle id="253" type="typePassenger" route="left-left" depart="66" />
    <vehicle id="254" type="typePassenger" route="down-down" depart="66" />
    <vehicle id="255" type="typePassenger" route="down-down" depart="66" />
    <vehicle id="256" type="typePassenger" route="down-down" depart="66" />
    <vehicle id="257" type="typeBus" route="right-down" depart="67" />
    <vehicle id="258" type="typePassenger" route="down-down" depart="67" />
    <vehicle id="259" type="typePassenger" route="down-down" depart="67" />
    <vehicle id="260" type="typePassenger" route="down-down" depart="67" />
    <vehicle id="261" type="typePassenger" route="down-down" depart="68" />
    <vehicle id="262" type="typePassenger" route="down-left" depart="68" />
    <vehicle id="263" type="typePassenger" route="down-down" depart="68" />
    <vehicle id="264" type="typePassenger" route="down-down" depart="68" />
    <vehicle id="265" type="typePassenger" route="down-down" depart="69" />
    <vehicle id="266" type="typePassenger" route="down-down" depart="69" />
    <vehicle id="267" type="typePassenger" route="down-left" depart="69" />
    <vehicle id="268" type="typePassenger" route="down-down" depart="69" />
    <vehicle id="269" type="typePassenger" route="down-down" depart="70" />
    <vehicle id="270" type="typePassenger" route="down-left" depart="70" />
    <vehicle id="271" type="typePassenger" route="down-down" depart="70" />
    <vehicle id="272" type="typePassenger" route="down-down" depart="70" />
    <vehicle id="273" type="typePassenger" route="down-down" depart="71" />
    <vehicle id="274" type="typeBus" route="right-down" depart="71" />
    <vehicle id="275" type="typePassenger" route="down-left" depart="71" />
    <vehicle id="276" type="typePassenger" route="down-down" depart="71" />
    <vehicle id="277" type="typePassenger" route="down-down" depart="71" />
    <vehicle id="278" type="typePassenger" route="down-down" depart="72" />
    <vehicle id="279" type="typePassenger" route="down-down" depart="72" />
    <vehicle id="280" type="typePassenger" route="down-down" depart="72" />
    <vehicle id="281" type="typePassenger" route="down-down" depart="73" />
    <vehicle id="282" type="typePassenger" route="down-down" depart="73" />
    <vehicle id="283" type="typeBus" route="right-down" depart="73" />
    <vehicle id="284" type="typePassenger" route="down-down" depart="73" />
    <vehicle id="285" type="typePassenger" route="down-down" depart="74" />
    <vehicle id="286" type="typePassenger" route="down-down" depart="74" />
    <vehicle id="287" type="typePassenger" route="down-down" depart="74" />
    <vehicle id="288" type="typePassenger" route="down-down" depart="75" />
    <vehicle id="289" type="typePassenger" route="down-down" depart="75" />
    <vehicle id="290" type="typePassenger" route="down-down" depart="75" />
    <vehicle id="291" type="typePassenger" route="down-down" depart="76" />
    <vehicle id="292" type="typePassenger" route="down-down" depart="76" />
    <vehicle id="293" type="typePassenger" route="down-left" depart="76" />
    <vehicle id="294" type="typePassenger" route="down-down" depart="76" />
    <vehicle id="295" type="typePassenger" route="down-left" depart="77" />
    <vehicle id="296" type="typePassenger" route="down-down" depart="77" />
    <vehicle id="297" type="typeBus" route="right-down" depart="77" />
    <vehicle id="298" type="typePassenger" route="left-left" depart="77" />
    <vehicle id="299" type="typePassenger" route="down-down" depart="77" />
    <vehicle id="300" type="typePassenger" route="down-down" depart="77" />
    <vehicle id="301" type="typePassenger" route="left-left" depart="78" />
    <vehicle id="302" type="typePassenger" route="down-down" depart="78" />
    <vehicle id="303" type="typePassenger" route="down-down" depart="78" />
    <vehicle id="304" type="typePassenger" route="down-down" depart="78" />
    <vehicle id="305" type="typePassenger" route="down-down" depart="79" />
    <vehicle id="306" type="typePassenger" route="down-left" depart="79" />
    <vehicle id="307" type="typePassenger" route="down-down" depart="79" />
    <vehicle id="308" type="typePassenger" route="down-left" depart="79" />
    <vehicle id="309" type="typePassenger" route="down-down" depart="79" />
    <vehicle id="310" type="typePassenger" route="left-left" depart="80" />
    <vehicle id="311" type="typePassenger" route="down-down" depart="80" />
    <vehicle id="312" type="typePassenger" route="left-left" depart="80" />
    <vehicle id="313" type="typePassenger" route="down-down" depart="80" />
    <vehicle id="314" type="typePassenger" route="left-left" depart="80" />
    <vehicle id="315" type="typePassenger" route="down-down" depart="80" />
    <vehicle id="316" type="typeBus" route="right-down" depart="81" />
    <vehicle id="317" type="typePassenger" route="down-left" depart="81" />
    <vehicle id="318" type="typePassenger" route="down-down" depart="81" />
    <vehicle id="319" type="typePassenger" route="down-down" depart="81" />
    <vehicle id="320" type="typePassenger" route="down-down" depart="81" />
    <vehicle id="321" type="typePassenger" route="down-down" depart="82" />
    <vehicle id="322" type="typePassenger" route="down-down" depart="82" />
    <vehicle id="323" type="typePassenger" route="down-down" depart="82" />
    <vehicle id="324" type="typePassenger" route="down-down" depart="83" />
    <vehicle id="325" type="typeBus" route="right-down" depart="83" />
    <vehicle id="326" type="typePassenger" route="down-down" depart="83" />
    <vehicle id="327" type="typePassenger" route="down-down" depart="83" />
    <vehicle id="328" type="typePassenger" route="down-down" depart="84" />
    <vehicle id="329" type="typePassenger" route="down-down" depart="84" />
    <vehicle id="330" type="typePassenger" route="down-down" depart="84" />
    <vehicle id="331" type="typePassenger" route="down-down" depart="85" />
    <vehicle id="332" type="typePassenger" route="down-down" depart="85" />
    <vehicle id="333" type="typePassenger" route="down-down" depart="85" />
    <vehicle id="334" type="typePassenger" route="down-down" depart="86" />
    <vehicle id="335" type="typePassenger" route="down-down" depart="86" />
    <vehicle id="336" type="typePassenger" route="down-down" depart="86" />
    <vehicle id="337" type="typePassenger" route="down-right" depart="87" />
    <vehicle id="338" type="typePassenger" route="down-down" depart="87" />
    <vehicle id="339" type="typePassenger" route="down-down" depart="87" />
    <vehicle id="340" type="typePassenger" route="left-left" depart="87" />
    <vehicle id="341" type="typePassenger" route="down-down" depart="87" />
    <vehicle id="342" type="typePassenger" route="down-down" depart="88" />
    <vehicle id="343" type="typePassenger" route="down-down" depart="88" />
    <vehicle id="344" type="typePassenger" route="down-down" depart="88" />
    <vehicle id="345" type="typePassenger" route="down-down" depart="89" />
    <vehicle id="346" type="typePassenger" route="down-left" depart="89" />
    <vehicle id="347" type="typePassenger" route="down-down" depart="89" />
    <vehicle id="348" type="typePassenger" route="down-down" depart="89" />
    <vehicle id="349" type="typePassenger" route="down-down" depart="90" />
    <vehicle id="350" type="typePassenger" route="down-down" depart="90" />
    <vehicle id="351" type="typePassenger" route="down-down" depart="90" />
    <vehicle id="352" type="typePassenger" route="down-down" depart="91" />
    <vehicle id="353" type="typePassenger" route="down-down" depart="91" />
    <vehicle id="354" type="typePassenger" route="down-down" depart="91" />
    <vehicle id="355" type="typePassenger" route="down-down" depart="92" />
    <vehicle id="356" type="typePassenger" route="down-right" depart="92" />
    <vehicle id="357" type="typePassenger" route="down-down" depart="92" />
    <vehicle id="358" type="typePassenger" route="down-down" depart="92" />
    <vehicle id="359" type="typePassenger" route="down-down" depart="93" />
    <vehicle id="360" type="typePassenger" route="down-down" depart="93" />
    <vehicle id="361" type="typePassenger" route="down-down" depart="93" />
    <vehicle id="362" type="typePassenger" route="down-right" depart="94" />
    <vehicle id="363" type="typePassenger" route="down-down" depart="94" />
    <vehicle id="364" type="typeBus" route="right-down" depart="94" />
    <vehicle id="365" type="typePassenger" route="down-down" depart="94" />
    <vehicle id="366" type="typePassenger" route="down-down" depart="94" />
    <vehicle id="367" type="typePassenger" route="left-left" depart="95" />
    <vehicle id="368" type="typePassenger" route="down-down" depart="95" />
    <vehicle id="369" type="typePassenger" route="down-down" depart="95" />
    <vehicle id="370" type="typePassenger" route="down-down" depart="95" />
    <vehicle id="371" type="typePassenger" route="left-left" depart="96" />
    <vehicle id="372" type="typePassenger" route="down-down" depart="96" />
    <vehicle id="373" type="typePassenger" route="down-down" depart="96" />
    <vehicle id="374" type="typeBus" route="right-down" depart="96" />
    <vehicle id="375" type="typePassenger" route="down-left" depart="96" />
    <vehicle id="376" type="typePassenger" route="down-down" depart="96" />
    <vehicle id="377" type="typePassenger" route="down-left" depart="97" />
    <vehicle id="378" type="typePassenger" route="down-down" depart="97" />
    <vehicle id="379" type="typePassenger" route="down-down" depart="97" />
    <vehicle id="380" type="typeBus" route="right-down" depart="97" />
    <vehicle id="381" type="typePassenger" route="down-down" depart="97" />
    <vehicle id="382" type="typePassenger" route="down-down" depart="98" />
    <vehicle id="383" type="typePassenger" route="down-down" depart="98" />
    <vehicle id="384" type="typeBus" route="right-down" depart="98" />
    <vehicle id="385" type="typePassenger" route="down-down" depart="98" />
    <vehicle id="386" type="typePassenger" route="down-down" depart="99" />
    <vehicle id="387" type="typePassenger" route="down-down" depart="99" />
    <vehicle id="388" type="typePassenger" route="down-down" depart="99" />
    <vehicle id="389" type="typePassenger" route="down-down" depart="100" />
    <vehicle id="390" type="typeBus" route="right-down" depart="100" />