<?xml version="1.0" encoding="UTF-8"?>

<!-- generated on Mon Apr 30 14:12:17 2018 by SUMO polyconvert Version 0.30.0
<?xml version="1.0" encoding="UTF-8"?>

<configuration xmlns:xsi="http://www.w3.org/2001/XMLSchema-instance" xsi:noNamespaceSchemaLocation="http://sumo.dlr.de/xsd/polyconvertConfiguration.xsd">

    <input>
        <net-file value="/usr/local/src/sumo-0.30.0/tools/2018-04-30-14-12-15/osm.net.xml"/>
        <osm-files value="osm_bbox.osm.xml"/>
        <osm.keep-full-type value="true"/>
        <type-file value="/usr/local/src/sumo-0.30.0/data/typemap/osmPolyconvert.typ.xml"/>
    </input>

    <output>
        <output-file value="/usr/local/src/sumo-0.30.0/tools/2018-04-30-14-12-15/osm.poly.xml"/>
    </output>

    <processing>
        <poi-layer-offset value="5"/>
    </processing>

    <report>
        <verbose value="true"/>
    </report>

</configuration>
-->

<!--<additional xmlns:xsi="http://www.w3.org/2001/XMLSchema-instance" xsi:noNamespaceSchemaLocation="http://sumo.dlr.de/xsd/additional_file.xsd">
    <location netOffset="-345664.39,3702224.17" convBoundary="0.00,0.00,3572.53,2121.45" origBoundary="-70.660452,-33.448515,-70.621714,-33.429717" projParameter="+proj=utm +zone=19 +ellps=WGS84 +datum=WGS84 +units=m +no_defs"/> 
    -->
<shape>
    <poly id="112317702" type="building" color="237,199,199" fill="1" layer="-1.00" shape="1164.64,868.58 1154.67,867.12 1167.89,778.14 1200.42,782.97 1202.42,769.64 1223.18,772.71 1208.13,874.71 1199.43,873.43 1198.82,877.59 1164.06,872.51 1164.64,868.58"/>
    <poly id="112317702#1" type="building" color="255,230,230" fill="1" layer="-1.00" shape="1164.64,868.58 1154.67,867.12 1167.89,778.14 1200.42,782.97 1202.42,769.64 1223.18,772.71 1208.13,874.71 1199.43,873.43 1198.82,877.59 1164.06,872.51 1164.64,868.58"/>
    <poly id="112317702#2" type="building" color="128,255,128" fill="1" layer="-1.00" shape="1164.64,868.58 1154.67,867.12 1167.89,778.14 1200.42,782.97 1202.42,769.64 1223.18,772.71 1208.13,874.71 1199.43,873.43 1198.82,877.59 1164.06,872.51 1164.64,868.58"/>
    <poly id="112550136" type="building" color="255,230,230" fill="1" layer="-1.00" shape="1427.67,559.90 1407.37,556.06 1413.13,525.80 1433.43,529.62 1427.67,559.90"/>
    <poly id="114621538" type="building" color="237,199,199" fill="1" layer="-1.00" shape="1223.68,580.19 1169.52,571.44 1170.13,563.64 1159.80,561.21 1163.87,540.65 1171.41,535.93 1176.87,494.70 1217.39,499.55 1214.87,542.65 1227.81,549.85 1223.68,580.19"/>
    <poly id="114621538#1" type="building" color="255,230,230" fill="1" layer="-1.00" shape="1223.68,580.19 1169.52,571.44 1170.13,563.64 1159.80,561.21 1163.87,540.65 1171.41,535.93 1176.87,494.70 1217.39,499.55 1214.87,542.65 1227.81,549.85 1223.68,580.19"/>
    <poly id="114621538#2" type="building" color="128,255,128" fill="1" layer="-1.00" shape="1223.68,580.19 1169.52,571.44 1170.13,563.64 1159.80,561.21 1163.87,540.65 1171.41,535.93 1176.87,494.70 1217.39,499.55 1214.87,542.65 1227.81,549.85 1223.68,580.19"/>
    <poly id="120367420" type="building" color="255,230,230" fill="1" layer="-1.00" shape="1400.24,406.85 1392.58,438.36 1444.32,450.81 1451.98,419.30 1400.24,406.85"/>
    <poly id="157650809" type="building" color="255,230,230" fill="1" layer="-1.00" shape="1158.36,759.30 1151.48,814.42 1110.32,809.19 1050.40,801.90 1047.36,825.06 1034.49,823.32 1044.23,745.17 1158.36,759.30"/>
    <poly id="157650809#1" type="building" color="237,199,255" fill="1" layer="-1.00" shape="1158.36,759.30 1151.48,814.42 1110.32,809.19 1050.40,801.90 1047.36,825.06 1034.49,823.32 1044.23,745.17 1158.36,759.30"/>
    <poly id="157650830" type="building" color="237,199,199" fill="1" layer="-1.00" shape="1108.22,809.46 1105.40,831.76 1092.79,830.17 1090.27,850.08 1083.02,849.18 1083.95,841.91 1032.57,835.46 1034.08,823.55 1047.51,825.24 1050.42,802.21 1108.22,809.46"/>
    <poly id="157650838" type="building" color="237,199,199" fill="1" layer="-1.00" shape="1100.31,871.82 1105.40,831.76 1092.79,830.17 1090.27,850.08 1083.02,849.18 1083.95,841.91 1032.57,835.46 1029.17,862.79 1100.31,871.82"/>
    <poly id="157650982" type="building" color="237,199,199" fill="1" layer="-1.00" shape="1228.15,470.49 1227.76,488.49 1230.72,488.70 1227.81,549.85 1214.87,542.65 1217.39,499.55 1176.87,494.70 1171.41,535.93 1163.87,540.65 1160.37,539.72 1173.50,464.21 1228.15,470.49"/>
    <poly id="157650982#1" type="building" color="255,230,230" fill="1" layer="-1.00" shape="1228.15,470.49 1227.76,488.49 1230.72,488.70 1227.81,549.85 1214.87,542.65 1217.39,499.55 1176.87,494.70 1171.41,535.93 1163.87,540.65 1160.37,539.72 1173.50,464.21 1228.15,470.49"/>
    <poly id="185124821" type="building" color="255,230,230" fill="1" layer="-1.00" shape="1414.98,634.38 1424.44,591.37 1438.18,594.37 1428.73,637.37 1414.98,634.38"/>
    <poly id="185124823" type="building" color="255,230,230" fill="1" layer="-1.00" shape="1470.66,572.23 1475.11,557.23 1512.59,568.25 1508.15,583.24 1470.66,572.23"/>
    <poly id="185124825" type="building" color="255,230,230" fill="1" layer="-1.00" shape="1429.96,561.28 1432.73,548.16 1456.85,553.22 1450.60,582.74 1436.58,579.79 1440.06,563.40 1429.96,561.28"/>
    <poly id="187709273" type="building" color="255,230,230" fill="1" layer="-1.00" shape="1106.55,870.37 1108.32,857.32 1116.17,858.37 1121.33,820.24 1136.77,822.32 1131.32,862.57 1129.85,873.49 1106.55,870.37"/>
    <poly id="187709274" type="building" color="255,230,230" fill="1" layer="-1.00" shape="1167.89,778.14 1169.89,764.81 1202.42,769.64 1200.42,782.97 1167.89,778.14"/>
    <poly id="187712679" type="building" color="255,230,230" fill="1" layer="-1.00" shape="1388.26,718.87 1385.44,718.56 1382.97,734.41 1385.96,734.72 1385.30,732.82 1385.39,726.87 1387.21,720.16 1388.26,718.87"/>
    <poly id="187712680" type="building" color="255,230,230" fill="1" layer="-1.00" shape="1386.93,737.53 1385.96,734.72 1385.30,732.82 1385.39,726.87 1387.21,720.16 1388.26,718.87 1389.79,717.01 1393.25,716.03 1397.23,716.59 1399.69,719.36 1400.85,725.09 1400.26,730.54 1398.22,735.76 1395.43,738.69 1391.18,739.37 1386.93,737.53"/>
    <poly id="187712682" type="building" color="255,230,230" fill="1" layer="-1.00" shape="1399.69,719.36 1401.73,718.44 1402.24,715.93 1395.53,714.08 1396.60,709.63 1406.58,711.13 1400.91,748.26 1389.78,746.27 1390.63,742.34 1397.32,742.66 1398.16,739.73 1395.43,738.69 1398.22,735.76 1400.26,730.54 1400.85,725.09 1399.69,719.36"/>
    <poly id="187712684" type="building" color="255,230,230" fill="1" layer="-1.00" shape="1407.63,704.26 1409.60,694.48 1414.57,693.03 1418.76,695.83 1423.02,697.18 1421.63,706.34 1419.94,706.13 1407.63,704.26"/>
    <poly id="187712686" type="building" color="255,230,230" fill="1" layer="-1.00" shape="1402.04,692.78 1409.60,694.48 1407.63,704.26 1399.43,701.73 1402.04,692.78"/>
    <poly id="187712688" type="building" color="255,230,230" fill="1" layer="-1.00" shape="1412.38,755.60 1413.42,755.84 1411.93,765.23 1407.46,764.42 1404.48,765.64 1400.95,765.55 1398.45,764.29 1400.07,753.74 1412.38,755.60"/>
    <poly id="187712689" type="building.office" color="255,230,230" fill="1" layer="-1.00" shape="1400.07,753.74 1400.91,748.26 1406.58,711.13 1407.63,704.26 1419.94,706.13 1412.38,755.60 1400.07,753.74"/>
    <poly id="187714468" type="building" color="255,230,230" fill="1" layer="-1.00" shape="1399.91,808.69 1397.61,808.34 1388.74,807.09 1390.53,795.01 1401.81,796.71 1399.91,808.69"/>
    <poly id="187714469" type="building" color="255,230,230" fill="1" layer="-1.00" shape="1324.09,802.95 1326.50,785.56 1390.53,795.01 1388.74,807.09 1387.95,812.37 1385.34,811.98 1324.09,802.95"/>
    <poly id="187714470" type="building" color="255,230,230" fill="1" layer="-1.00" shape="1403.83,817.18 1399.37,845.81 1382.73,843.24 1383.50,838.34 1381.33,838.00 1385.34,811.98 1387.95,812.37 1396.77,813.66 1404.38,814.85 1403.83,817.18"/>
    <poly id="187715392" type="building" color="255,230,230" fill="1" layer="-1.00" shape="1404.38,814.85 1407.13,797.55 1401.81,796.71 1399.91,808.69 1397.61,808.34 1396.77,813.66 1404.38,814.85"/>
    <poly id="198359946" type="leisure.park" color="207,245,201" fill="1" layer="-2.00" shape="1176.87,494.70 1217.39,499.55 1214.87,542.65 1171.41,535.93 1176.87,494.70"/>
    <poly id="23321628" type="leisure.park" color="207,245,201" fill="1" layer="-2.00" shape="1705.35,843.86 1655.63,802.15 1608.03,766.78 1559.48,741.59 1515.16,723.69 1504.06,740.81 1490.19,765.25 1475.92,790.39 1460.77,832.66 1456.29,861.23 1463.23,890.63 1477.61,920.46 1499.42,987.51 1552.09,1125.31 1563.16,1161.21 1564.48,1165.30 1567.50,1168.71 1571.10,1171.00 1574.51,1171.69 1580.57,1170.79 1622.04,1130.28 1626.33,1121.15 1630.35,1112.26 1657.88,997.41 1666.49,902.45 1682.42,874.79 1705.35,843.86"/>
    <poly id="23635164" type="leisure.park" color="207,245,201" fill="1" layer="-2.00" shape="704.99,469.41 767.08,489.73 810.31,500.57 843.22,504.41 937.13,529.97 1062.62,568.89 1156.38,595.48 1069.86,562.13 1052.74,556.52 981.64,534.79 852.96,494.76 840.80,490.23 803.65,474.37 792.50,469.86 709.29,440.47 704.99,469.41"/>
    <poly id="40221646" type="building" color="255,230,230" fill="1" layer="-1.00" shape="1129.49,648.42 1135.15,620.22 1162.56,625.66 1156.90,653.87 1129.49,648.42"/>
    <poly id="40223275" type="building" color="255,230,230" fill="1" layer="-1.00" shape="1194.40,421.60 1195.85,330.27 1227.33,337.38 1232.36,342.76 1229.48,423.74 1194.40,421.60"/>
    <poly id="409129257" type="building" color="237,199,199" fill="1" layer="-1.00" shape="1404.23,685.27 1402.04,692.78 1399.43,701.73 1387.76,702.47 1386.17,703.95 1384.61,709.57 1386.79,709.91 1385.44,718.56 1382.97,734.41 1380.90,747.65 1378.30,764.46 1330.55,756.96 1333.12,740.30 1339.03,702.51 1341.09,702.82 1343.53,693.05 1342.67,691.25 1342.85,688.71 1343.60,685.89 1334.84,683.33 1339.70,666.64 1404.23,685.27"/>
    <poly id="409129257#1" type="building.office" color="255,230,230" fill="1" layer="-1.00" shape="1404.23,685.27 1402.04,692.78 1399.43,701.73 1387.76,702.47 1386.17,703.95 1384.61,709.57 1386.79,709.91 1385.44,718.56 1382.97,734.41 1380.90,747.65 1378.30,764.46 1330.55,756.96 1333.12,740.30 1339.03,702.51 1341.09,702.82 1343.53,693.05 1342.67,691.25 1342.85,688.71 1343.60,685.89 1334.84,683.33 1339.70,666.64 1404.23,685.27"/>
    <poly id="409129260" type="building" color="237,199,199" fill="1" layer="-1.00" shape="1373.85,702.40 1378.73,702.53 1378.70,699.95 1379.75,696.04 1375.99,695.07 1373.85,702.40"/>
    <poly id="409129260#1" type="building.office" color="255,230,230" fill="1" layer="-1.00" shape="1373.85,702.40 1378.73,702.53 1378.70,699.95 1379.75,696.04 1375.99,695.07 1373.85,702.40"/>
    <poly id="409129262" type="building" color="237,199,199" fill="1" layer="-1.00" shape="1353.38,696.82 1355.72,689.03 1352.74,688.25 1351.51,692.57 1349.73,694.45 1353.38,696.82"/>
    <poly id="409129262#1" type="building.office" color="255,230,230" fill="1" layer="-1.00" shape="1353.38,696.82 1355.72,689.03 1352.74,688.25 1351.51,692.57 1349.73,694.45 1353.38,696.82"/>
    <poly id="410588770" type="building" color="255,230,230" fill="1" layer="-1.00" shape="1082.51,736.42 1084.70,717.01 1121.22,721.63 1118.57,740.91 1082.51,736.42"/>
    <poly id="410588775" type="building" color="255,230,230" fill="1" layer="-1.00" shape="1629.43,476.68 1639.62,432.68 1687.63,443.71 1684.27,458.22 1649.69,450.28 1642.86,479.76 1629.43,476.68"/>
    <poly id="410588776" type="building.apartments" color="255,230,230" fill="1" layer="-1.00" shape="1541.91,509.61 1546.35,493.24 1596.46,506.75 1592.02,523.11 1541.91,509.61"/>
    <poly id="410588777" type="building" color="255,230,230" fill="1" layer="-1.00" shape="1311.95,831.12 1315.35,811.16 1296.35,807.95 1292.94,827.91 1311.95,831.12"/>
    <poly id="410588778" type="building" color="255,230,230" fill="1" layer="-1.00" shape="1200.52,656.61 1204.37,633.12 1185.34,630.02 1181.47,653.48 1200.52,656.61"/>
    <poly id="447235947" type="building" color="255,230,230" fill="1" layer="-1.00" shape="1597.65,595.12 1600.56,582.14 1617.57,585.94 1614.65,598.92 1597.65,595.12"/>
    <poly id="447239131" type="building" color="255,230,230" fill="1" layer="-1.00" shape="1605.71,561.44 1608.08,552.86 1629.64,558.80 1627.26,567.37 1605.71,561.44"/>
    <poly id="447239132" type="building" color="255,230,230" fill="1" layer="-1.00" shape="1608.04,543.85 1610.43,533.51 1623.04,536.50 1620.47,546.82 1608.04,543.85"/>
    <poly id="447239133" type="building" color="255,230,230" fill="1" layer="-1.00" shape="1610.43,533.51 1623.04,536.50 1625.59,526.04 1612.75,523.13 1610.43,533.51"/>
    <poly id="447239133#1" type="building" color="237,199,255" fill="1" layer="-1.00" shape="1610.43,533.51 1623.04,536.50 1625.59,526.04 1612.75,523.13 1610.43,533.51"/>
    <poly id="447239134" type="amenity.dancing_school" color="237,199,199" fill="1" layer="-1.00" shape="1612.75,523.13 1625.59,526.04 1627.87,516.02 1615.03,513.11 1612.75,523.13"/>
    <poly id="447239134#1" type="building" color="255,230,230" fill="1" layer="-1.00" shape="1612.75,523.13 1625.59,526.04 1627.87,516.02 1615.03,513.11 1612.75,523.13"/>
    <poly id="447262100" type="amenity.school" color="237,199,199" fill="1" layer="-1.00" shape="1417.66,831.51 1435.71,835.44 1432.49,850.09 1414.44,846.17 1417.66,831.51"/>
    <poly id="447262100#1" type="building" color="255,230,230" fill="1" layer="-1.00" shape="1417.66,831.51 1435.71,835.44 1432.49,850.09 1414.44,846.17 1417.66,831.51"/>
    <poly id="447262102" type="building" color="255,230,230" fill="1" layer="-1.00" shape="1560.65,627.94 1573.42,631.17 1577.80,614.04 1565.02,610.81 1560.65,627.94"/>
    <poly id="447262104" type="building" color="255,230,230" fill="1" layer="-1.00" shape="1559.18,598.54 1580.42,604.16 1589.19,571.37 1578.37,568.51 1572.15,591.71 1561.75,588.95 1559.18,598.54"/>
    <poly id="447262106" type="building" color="255,230,230" fill="1" layer="-1.00" shape="1574.84,555.52 1588.80,558.95 1596.48,528.03 1582.51,524.59 1574.84,555.52"/>
    <poly id="447262107" type="building.apartments" color="255,230,230" fill="1" layer="-1.00" shape="1601.25,491.53 1603.27,478.12 1565.34,472.46 1563.33,485.87 1601.25,491.53"/>
    <poly id="447263545" type="amenity.doctors" color="237,199,199" fill="1" layer="-1.00" shape="1586.73,448.76 1608.16,452.16 1610.56,437.15 1589.14,433.75 1586.73,448.76"/>
    <poly id="447263545#1" type="building" color="255,230,230" fill="1" layer="-1.00" shape="1586.73,448.76 1608.16,452.16 1610.56,437.15 1589.14,433.75 1586.73,448.76"/>
    <poly id="447263546" type="building.apartments" color="255,230,230" fill="1" layer="-1.00" shape="1618.77,410.50 1621.38,396.73 1615.78,395.67 1615.14,399.07 1609.09,397.94 1610.03,392.94 1600.56,391.16 1597.49,407.41 1607.60,409.30 1608.58,404.12 1612.48,404.85 1611.65,409.17 1618.77,410.50"/>
    <poly id="447507356" type="building" color="255,230,230" fill="1" layer="-1.00" shape="1243.22,756.52 1267.21,635.51 1306.71,643.28 1282.72,764.28 1243.22,756.52"/>
    <poly id="447507356#1" type="building" color="237,199,255" fill="1" layer="-1.00" shape="1243.22,756.52 1267.21,635.51 1306.71,643.28 1282.72,764.28 1243.22,756.52"/>
    <poly id="447507357" type="building" color="255,230,230" fill="1" layer="-1.00" shape="1213.09,753.60 1221.74,705.30 1223.01,700.19 1236.91,702.76 1226.97,756.13 1213.09,753.60"/>
    <poly id="447509068" type="building" color="255,230,230" fill="1" layer="-1.00" shape="1169.89,749.52 1178.54,701.22 1221.74,705.30 1213.09,753.60 1169.89,749.52"/>
    <poly id="447509894" type="building" color="255,230,230" fill="1" layer="-1.00" shape="1118.11,744.16 1118.57,740.91 1121.22,721.63 1124.80,696.44 1158.39,701.18 1151.61,748.88 1150.13,750.13 1118.11,744.16"/>
    <poly id="447513303" type="building" color="255,230,230" fill="1" layer="-1.00" shape="1082.51,736.42 1045.90,732.30 1049.61,699.56 1078.88,702.84 1077.85,711.94 1085.19,712.77 1084.70,717.01 1082.51,736.42"/>
    <poly id="447531194" type="building" color="255,230,230" fill="1" layer="-1.00" shape="1316.50,792.31 1317.22,785.87 1298.46,783.80 1297.74,790.25 1316.50,792.31"/>
    <poly id="447531195" type="building" color="255,230,230" fill="1" layer="-1.00" shape="1258.94,808.21 1264.42,773.72 1277.87,775.83 1281.07,779.34 1276.15,810.85 1262.56,808.38 1258.94,808.21"/>
    <poly id="447531196" type="building" color="255,230,230" fill="1" layer="-1.00" shape="1233.87,789.29 1236.64,769.55 1251.68,771.65 1248.91,791.40 1233.87,789.29"/>
    <poly id="447564376" type="building" color="255,230,230" fill="1" layer="-1.00" shape="1451.15,659.47 1454.83,648.21 1483.29,657.43 1479.60,668.70 1451.15,659.47"/>
    <poly id="448220192" type="building" color="255,230,230" fill="1" layer="-1.00" shape="1017.15,510.82 1027.95,454.40 1104.13,471.81 1098.06,497.56 1105.80,500.02 1092.56,531.75 1017.15,510.82"/>
    <poly id="448220193" type="building" color="255,230,230" fill="1" layer="-1.00" shape="1346.56,563.12 1425.29,584.23 1409.30,633.38 1357.94,616.18 1352.02,611.86 1347.86,606.84 1345.94,602.08 1344.25,598.34 1343.10,592.61 1346.56,563.12"/>
    <poly id="448221491" type="building" color="255,230,230" fill="1" layer="-1.00" shape="1181.47,653.48 1200.52,656.61 1207.36,657.73 1204.42,675.44 1178.53,671.19 1181.47,653.48"/>
    <poly id="448364760" type="building" color="255,230,230" fill="1" layer="-1.00" shape="1221.73,634.12 1246.62,640.07 1240.27,666.39 1215.38,660.43 1221.73,634.12"/>
    <poly id="448667708" type="amenity.marketplace" color="237,199,199" fill="1" layer="-1.00" shape="1502.55,674.97 1507.90,653.34 1502.83,652.09 1513.66,608.51 1524.69,611.23 1522.07,621.73 1552.07,629.16 1550.31,636.16 1563.86,639.54 1563.21,642.12 1560.49,650.89 1557.53,659.68 1550.19,666.27 1531.09,675.40 1513.10,677.56 1502.55,674.97"/>
    <poly id="448667708#1" type="building" color="255,230,230" fill="1" layer="-1.00" shape="1502.55,674.97 1507.90,653.34 1502.83,652.09 1513.66,608.51 1524.69,611.23 1522.07,621.73 1552.07,629.16 1550.31,636.16 1563.86,639.54 1563.21,642.12 1560.49,650.89 1557.53,659.68 1550.19,666.27 1531.09,675.40 1513.10,677.56 1502.55,674.97"/>
    <poly id="448736021" type="building.apartments" color="255,230,230" fill="1" layer="-1.00" shape="1314.91,489.11 1326.26,491.99 1331.85,470.03 1320.50,467.16 1314.91,489.11"/>
    <poly id="448736022" type="building.apartments" color="255,230,230" fill="1" layer="-1.00" shape="1318.77,521.58 1308.85,519.38 1304.53,538.68 1314.45,540.89 1318.77,521.58"/>
    <poly id="448736023" type="building" color="255,230,230" fill="1" layer="-1.00" shape="1298.86,567.00 1302.56,551.98 1315.21,555.07 1311.52,570.08 1298.86,567.00"/>
    <poly id="448736024" type="building" color="255,230,230" fill="1" layer="-1.00" shape="1276.15,810.85 1262.56,808.38 1261.88,812.11 1258.80,811.55 1255.38,830.23 1264.00,831.80 1262.39,840.83 1270.62,842.08 1276.15,810.85"/>
    <poly id="448736025" type="building" color="255,230,230" fill="1" layer="-1.00" shape="1270.62,842.08 1262.39,840.83 1254.55,891.83 1262.79,893.08 1270.62,842.08"/>
    <poly id="448737752" type="building" color="255,230,230" fill="1" layer="-1.00" shape="1282.95,851.64 1284.18,842.48 1298.58,844.87 1297.04,853.74 1282.95,851.64"/>
    <poly id="448737753" type="building" color="255,230,230" fill="1" layer="-1.00" shape="1282.95,851.64 1297.04,853.74 1295.34,865.02 1291.18,864.40 1281.25,862.93 1282.95,851.64"/>
    <poly id="51965676" type="building" color="255,230,230" fill="1" layer="-1.00" shape="1065.65,696.07 1080.62,698.43 1086.66,660.44 1071.86,658.23 1065.65,696.07"/>
    <poly id="52774467" type="leisure.park" color="207,245,201" fill="1" layer="-2.00" shape="1433.10,783.80 1434.81,784.15 1465.49,789.20 1472.98,781.25 1503.61,715.42 1442.19,692.84 1441.72,696.36 1431.00,776.76 1433.10,783.80"/>
    <poly id="545024076" type="building" color="255,230,230" fill="1" layer="-1.00" shape="1279.84,591.17 1285.27,563.16 1311.52,570.08 1304.42,601.93 1279.84,591.17"/>
    <poly id="545024370" type="natural.grassland" color="140,196,107" fill="1" layer="-4.00" shape="1308.31,628.83 1310.38,623.89 1209.04,597.46 1211.00,599.72 1308.31,628.83"/>
    <poly id="545026590" type="building.Ministry" color="255,230,230" fill="1" layer="-1.00" shape="1312.55,574.78 1307.41,600.71 1278.55,590.79 1284.95,566.71 1302.97,572.22 1307.91,573.48 1312.55,574.78"/>
    <poly id="550885542" type="building" color="255,230,230" fill="1" layer="-1.00" shape="1619.78,681.68 1626.38,702.65 1636.92,700.30 1630.28,678.48 1619.78,681.68"/>
    <poly id="561589544" type="building" color="255,230,230" fill="1" layer="-1.00" shape="1419.43,828.80 1442.70,831.78 1451.77,802.63 1439.12,798.09 1423.79,797.97 1419.43,828.80"/>
    <poly id="579064351" type="building" color="255,230,230" fill="1" layer="-1.00" shape="1520.86,772.32 1520.97,776.73 1537.56,776.32 1552.03,768.42 1548.62,764.03 1520.86,772.32"/>
    <poly id="579064352" type="amenity.fountain" color="237,199,199" fill="1" layer="-1.00" shape="1529.21,769.40 1528.10,765.16 1530.50,761.39 1535.17,761.47 1538.92,766.40 1529.21,769.40"/>
    <poi id="1276923278" type="tourism.viewpoint" color="207,245,201" layer="3.00" x="1558.42" y="820.36"/>
    <poi id="1278934534" type="building" color="207,245,201" layer="3.00" x="1425.56" y="535.58"/>
    <poi id="1297908107" type="building" color="207,245,201" layer="3.00" x="1374.68" y="625.64"/>
    <poi id="1297908112" type="building" color="207,245,201" layer="3.00" x="1174.68" y="528.11"/>
    <poi id="1395559943" type="building" color="237,199,199" layer="4.00" x="1119.76" y="616.81"/>
    <poi id="1534858399" type="amenity.fast_food" color="237,199,199" layer="4.00" x="1485.15" y="520.38"/>
    <poi id="1534858409" type="amenity.cafe" color="237,199,199" layer="4.00" x="1454.38" y="558.37"/>
    <poi id="1696972509" type="amenity.pharmacy" color="237,199,199" layer="4.00" x="1362.78" y="620.68"/>
    <poi id="1696972510" type="shop.bakery" color="237,199,255" layer="4.00" x="1331.52" y="459.02"/>
    <poi id="1841300609" type="tourism.viewpoint" color="207,245,201" layer="3.00" x="1566.65" y="822.44"/>
    <poi id="1841300627" type="tourism.viewpoint" color="207,245,201" layer="3.00" x="1523.36" y="752.27"/>
    <poi id="1871946538" type="man_made.antenna" color="255,230,230" layer="4.00" x="1311.80" y="474.18"/>
    <poi id="1887781880" type="amenity.bar" color="237,199,199" layer="4.00" x="1486.85" y="661.42"/>
    <poi id="1938243677" type="amenity.cafe" color="237,199,199" layer="4.00" x="1444.51" y="598.69"/>
    <poi id="1938243681" type="shop.alcohol" color="237,199,255" layer="4.00" x="1478.65" y="551.58"/>
    <poi id="1938243696" type="shop.bakery" color="237,199,255" layer="4.00" x="1442.64" y="605.86"/>
    <poi id="1949641649" type="building" color="207,245,201" layer="3.00" x="1107.28" y="451.51"/>
    <poi id="1956929897" type="shop.hairdresser" color="237,199,255" layer="4.00" x="1479.46" y="547.85"/>
    <poi id="1956929898" type="shop.books" color="237,199,255" layer="4.00" x="1499.29" y="549.22"/>
    <poi id="1956929899" type="shop.convenience" color="237,199,255" layer="4.00" x="1480.53" y="543.41"/>
    <poi id="1956929924" type="amenity.fast_food" color="237,199,199" layer="4.00" x="1494.27" y="547.83"/>
    <poi id="1983441597" type="building" color="207,245,201" layer="3.00" x="1404.14" y="800.37"/>
    <poi id="2084973721" type="shop.bakery" color="237,199,255" layer="4.00" x="1359.55" y="514.21"/>
    <poi id="2188728954" type="building" color="237,199,199" layer="4.00" x="1465.91" y="646.39"/>
    <poi id="2318318087" type="amenity.fast_food" color="237,199,199" layer="4.00" x="1319.05" y="512.85"/>
    <poi id="2318319727" type="shop.bakery" color="237,199,255" layer="4.00" x="1315.03" y="430.76"/>
    <poi id="2318321415" type="shop.alcohol" color="237,199,255" layer="4.00" x="1387.57" y="384.08"/>
    <poi id="2318323536" type="building" color="237,199,199" layer="4.00" x="1342.53" y="399.55"/>
    <poi id="2344872527" type="building" color="128,255,128" layer="4.00" x="1388.09" y="697.06"/>
    <poi id="2390205301" type="building" color="237,199,199" layer="4.00" x="1101.24" y="527.97"/>
    <poi id="2545265481" type="building" color="237,199,199" layer="4.00" x="1229.44" y="833.88"/>
    <poi id="2546269133" type="amenity.post_office" color="237,199,199" layer="4.00" x="1225.89" y="756.32"/>
    <poi id="2546275769" type="shop.jewelry" color="237,199,255" layer="4.00" x="1237.41" y="799.02"/>
    <poi id="2692131728" type="building" color="237,199,199" layer="4.00" x="1429.70" y="504.51"/>
    <poi id="2692146651" type="building" color="237,199,199" layer="4.00" x="1505.45" y="477.90"/>
    <poi id="2692146652" type="shop.greengrocer" color="237,199,255" layer="4.00" x="1391.65" y="498.44"/>
    <poi id="2823813942" type="shop.books" color="237,199,255" layer="4.00" x="1202.62" y="724.61"/>
    <poi id="2976112065" type="amenity.atm" color="237,199,199" layer="4.00" x="1381.34" y="627.23"/>
    <poi id="3183966649" type="shop.alcohol" color="237,199,255" layer="4.00" x="1607.02" y="560.83"/>
    <poi id="3183966650" type="amenity.fast_food" color="237,199,199" layer="4.00" x="1586.05" y="553.02"/>
    <poi id="3183967396" type="amenity.fast_food" color="237,199,199" layer="4.00" x="1601.10" y="586.33"/>
    <poi id="3370244178" type="tourism.attraction" color="207,245,201" layer="3.00" x="1530.59" y="862.83"/>
    <poi id="3370759035" type="amenity.cafe" color="237,199,199" layer="4.00" x="1159.87" y="512.23"/>
    <poi id="3370778895" type="amenity.cafe" color="237,199,199" layer="4.00" x="1111.16" y="464.77"/>
    <poi id="3370799093" type="shop.convenience" color="237,199,255" layer="4.00" x="1146.87" y="475.87"/>
    <poi id="3370808293" type="tourism.hostel" color="207,245,201" layer="3.00" x="1126.76" y="418.99"/>
    <poi id="3370832893" type="building" color="207,245,201" layer="3.00" x="1190.94" y="446.95"/>
    <poi id="3381073970" type="amenity.bicycle_rental" color="237,199,199" layer="4.00" x="1240.95" y="772.18"/>
    <poi id="3404085893" type="shop.electronics" color="237,199,255" layer="4.00" x="1144.90" y="616.29"/>
    <poi id="3459497767" type="amenity.bicycle_rental" color="237,199,199" layer="4.00" x="1433.96" y="733.50"/>
    <poi id="3565421393" type="amenity.kindergarten" color="237,199,199" layer="4.00" x="1489.07" y="556.50"/>
    <poi id="3567936364" type="amenity.kindergarten" color="237,199,199" layer="4.00" x="1510.16" y="412.24"/>
    <poi id="3568204541" type="amenity.kindergarten" color="237,199,199" layer="4.00" x="1369.55" y="456.43"/>
    <poi id="373489716" type="building" color="207,245,201" layer="3.00" x="1125.09" y="532.30"/>
    <poi id="3895633979" type="amenity.post_office" color="237,199,199" layer="4.00" x="1299.92" y="662.29"/>
    <poi id="4049295295" type="building" color="207,245,201" layer="3.00" x="1160.79" y="657.04"/>
    <poi id="4213118891" type="building" color="207,245,201" layer="3.00" x="1128.27" y="472.77"/>
    <poi id="4374821392" type="shop.hardware" color="237,199,255" layer="4.00" x="1227.83" y="735.90"/>
    <poi id="4443727189" type="amenity.bank" color="237,199,199" layer="4.00" x="1083.95" y="752.27"/>
    <poi id="4443727190" type="building" color="237,199,199" layer="4.00" x="1123.06" y="742.11"/>
    <poi id="4444110400" type="leisure.sports_centre" color="207,245,201" layer="3.00" x="1611.00" y="537.01"/>
    <poi id="4444110405" type="building" color="237,199,199" layer="4.00" x="1616.06" y="517.79"/>
    <poi id="4444307842" type="amenity.clinic" color="237,199,199" layer="4.00" x="1577.36" y="598.39"/>
    <poi id="4444307848" type="shop.yes" color="237,199,255" layer="4.00" x="1588.92" y="545.00"/>
    <poi id="4444322062" type="shop.convenience" color="237,199,255" layer="4.00" x="1618.53" y="398.95"/>
    <poi id="4444322063" type="shop.yes" color="237,199,255" layer="4.00" x="1616.64" y="405.78"/>
    <poi id="4446168940" type="shop.optician" color="237,199,255" layer="4.00" x="1279.45" y="761.57"/>
    <poi id="4446168941" type="shop.yes" color="237,199,255" layer="4.00" x="1259.24" y="758.04"/>
    <poi id="4446185127" type="shop.sports" color="237,199,255" layer="4.00" x="1223.31" y="755.99"/>
    <poi id="4446185128" type="shop.clothes" color="237,199,255" layer="4.00" x="1215.92" y="754.88"/>
    <poi id="4446185132" type="shop.yes" color="237,199,255" layer="4.00" x="1187.06" y="750.20"/>
    <poi id="4446185133" type="amenity.cafe" color="237,199,199" layer="4.00" x="1173.73" y="748.88"/>
    <poi id="4446190776" type="amenity.bank" color="237,199,199" layer="4.00" x="1147.83" y="746.23"/>
    <poi id="4446190777" type="amenity.bank" color="237,199,199" layer="4.00" x="1134.77" y="744.03"/>
    <poi id="4446202703" type="amenity.bank" color="237,199,199" layer="4.00" x="1112.87" y="737.04"/>
    <poi id="4446202704" type="amenity.bank" color="237,199,199" layer="4.00" x="1103.67" y="736.03"/>
    <poi id="4446202705" type="amenity.bank" color="237,199,199" layer="4.00" x="1090.09" y="734.70"/>
    <poi id="4446300348" type="amenity.pharmacy" color="237,199,199" layer="4.00" x="1314.93" y="787.01"/>
    <poi id="4446300349" type="shop.optician" color="237,199,255" layer="4.00" x="1299.64" y="785.58"/>
    <poi id="4446300355" type="shop.optician" color="237,199,255" layer="4.00" x="1278.26" y="778.65"/>
    <poi id="4446303887" type="shop.yes" color="237,199,255" layer="4.00" x="1192.07" y="769.56"/>
    <poi id="4446303888" type="amenity.bank" color="237,199,199" layer="4.00" x="1150.48" y="765.16"/>
    <poi id="4446593522" type="amenity.fast_food" color="237,199,199" layer="4.00" x="1464.33" y="659.87"/>
    <poi id="4446864067" type="building" color="237,199,199" layer="4.00" x="1606.11" y="576.30"/>
    <poi id="4446864068" type="shop.beauty" color="237,199,255" layer="4.00" x="1612.63" y="586.01"/>