<?xml version="1.0" encoding="UTF-8"?>

<!-- generated on jue 16 ago 2018 00:36:56 -03 by Netedit Version 0.30.0
<?xml version="1.0" encoding="UTF-8"?>

<configuration xmlns:xsi="http://www.w3.org/2001/XMLSchema-instance" xsi:noNamespaceSchemaLocation="http://sumo.dlr.de/xsd/netconvertConfiguration.xsd">

    <input>
        <sumo-net-file value="/home/alexis/git/CA_System/src/networks/Xintersection_stgo/stgo1.net.xml"/>
    </input>

    <output>
        <output-file value="/home/alexis/git/CA_System/src/networks/Xintersection_stgo/stgo1.net.xml"/>
        <output.street-names value="true"/>
    </output>

    <processing>
        <no-turnarounds value="true"/>
        <offset.disable-normalization value="true"/>
        <lefthand value="false"/>
        <junctions.corner-detail value="5"/>
        <rectangular-lane-cut value="false"/>
    </processing>

    <visualisation>
        <registry-viewport value="true"/>
    </visualisation>

</configuration>
-->

<net version="0.27" junctionCornerDetail="5" xmlns:xsi="http://www.w3.org/2001/XMLSchema-instance" xsi:noNamespaceSchemaLocation="http://sumo.dlr.de/xsd/net_file.xsd">

    <location netOffset="-345664.39,3702224.17" convBoundary="0.00,0.00,3572.53,2121.45" origBoundary="-70.660452,-33.448515,-70.621714,-33.429717" projParameter="+proj=utm +zone=19 +ellps=WGS84 +datum=WGS84 +units=m +no_defs"/>

    <type id="highway.bridleway" priority="1" numLanes="1" speed="2.78" allow="pedestrian" oneway="1" width="2.00"/>
    <type id="highway.bus_guideway" priority="1" numLanes="1" speed="8.33" allow="bus" oneway="1"/>
    <type id="highway.cycleway" priority="1" numLanes="1" speed="5.56" allow="bicycle" oneway="0" width="1.00"/>
    <type id="highway.footway" priority="1" numLanes="1" speed="2.78" allow="pedestrian" oneway="1" width="2.00"/>
    <type id="highway.ford" priority="1" numLanes="1" speed="2.78" allow="army" oneway="0"/>
    <type id="highway.living_street" priority="3" numLanes="1" speed="2.78" disallow="tram rail_urban rail rail_electric ship" oneway="0"/>
    <type id="highway.motorway" priority="13" numLanes="2" speed="44.44" allow="private emergency authority army vip passenger hov taxi bus coach delivery truck trailer motorcycle evehicle custom1 custom2" oneway="1"/>
    <type id="highway.motorway_link" priority="12" numLanes="1" speed="22.22" allow="private emergency authority army vip passenger hov taxi bus coach delivery truck trailer motorcycle evehicle custom1 custom2" oneway="1"/>
    <type id="highway.path" priority="1" numLanes="1" speed="2.78" allow="bicycle pedestrian" oneway="1" width="2.00"/>
    <type id="highway.pedestrian" priority="1" numLanes="1" speed="2.78" allow="pedestrian" oneway="1" width="2.00"/>
    <type id="highway.primary" priority="9" numLanes="2" speed="27.78" disallow="tram rail_urban rail rail_electric ship" oneway="0"/>
    <type id="highway.primary_link" priority="8" numLanes="1" speed="22.22" disallow="tram rail_urban rail rail_electric ship" oneway="0"/>
    <type id="highway.raceway" priority="14" numLanes="2" speed="83.33" allow="vip" oneway="0"/>
    <type id="highway.residential" priority="4" numLanes="1" speed="13.89" disallow="tram rail_urban rail rail_electric ship" oneway="0"/>
    <type id="highway.secondary" priority="7" numLanes="2" speed="27.78" disallow="tram rail_urban rail rail_electric ship" oneway="0"/>
    <type id="highway.secondary_link" priority="6" numLanes="1" speed="22.22" disallow="tram rail_urban rail rail_electric ship" oneway="0"/>
    <type id="highway.service" priority="2" numLanes="1" speed="5.56" allow="delivery bicycle pedestrian" oneway="0"/>
    <type id="highway.services" priority="1" numLanes="1" speed="8.33" disallow="tram rail_urban rail rail_electric ship" oneway="0"/>
    <type id="highway.stairs" priority="1" numLanes="1" speed="1.39" allow="pedestrian" oneway="1" width="2.00"/>
    <type id="highway.step" priority="1" numLanes="1" speed="1.39" allow="pedestrian" oneway="1" width="2.00"/>
    <type id="highway.steps" priority="1" numLanes="1" speed="1.39" allow="pedestrian" oneway="1" width="2.00"/>
    <type id="highway.tertiary" priority="6" numLanes="1" speed="22.22" disallow="tram rail_urban rail rail_electric ship" oneway="0"/>
    <type id="highway.tertiary_link" priority="5" numLanes="1" speed="22.22" disallow="tram rail_urban rail rail_electric ship" oneway="0"/>
    <type id="highway.track" priority="1" numLanes="1" speed="5.56" disallow="tram rail_urban rail rail_electric ship" oneway="0"/>
    <type id="highway.trunk" priority="11" numLanes="2" speed="27.78" disallow="tram rail_urban rail rail_electric bicycle pedestrian ship" oneway="0"/>
    <type id="highway.trunk_link" priority="10" numLanes="1" speed="22.22" disallow="tram rail_urban rail rail_electric bicycle pedestrian ship" oneway="0"/>
    <type id="highway.unclassified" priority="5" numLanes="1" speed="13.89" disallow="tram rail_urban rail rail_electric ship" oneway="0"/>
    <type id="highway.unsurfaced" priority="1" numLanes="1" speed="8.33" disallow="tram rail_urban rail rail_electric ship" oneway="0"/>
    <type id="railway.light_rail" priority="15" numLanes="1" speed="27.78" allow="rail_urban" oneway="1"/>
    <type id="railway.preserved" priority="15" numLanes="1" speed="27.78" allow="rail" oneway="1"/>
    <type id="railway.rail" priority="15" numLanes="1" speed="83.33" allow="rail rail_electric" oneway="1"/>
    <type id="railway.subway" priority="15" numLanes="1" speed="27.78" allow="rail_urban" oneway="1"/>
    <type id="railway.tram" priority="15" numLanes="1" speed="13.89" allow="tram" oneway="1"/>

    <edge id=":102381375_0" function="internal">
        <lane id=":102381375_0_0" index="0" disallow="tram rail_urban rail rail_electric ship" speed="20.84" length="6.54" shape="1287.23,766.11 1285.06,766.03 1283.49,766.43 1282.51,767.32 1282.13,768.69"/>
    </edge>
    <edge id=":102381375_1" function="internal">
        <lane id=":102381375_1_0" index="0" disallow="tram rail_urban rail rail_electric ship" speed="13.89" length="12.85" shape="1287.23,766.11 1274.48,764.53"/>
    </edge>
    <edge id=":102381375_2" function="internal">
        <lane id=":102381375_2_0" index="0" disallow="tram rail_urban rail rail_electric ship" speed="27.78" length="7.46" shape="1281.59,761.65 1281.33,763.70 1281.60,765.13 1282.00,766.58 1282.13,768.69"/>
        <lane id=":102381375_2_1" index="1" disallow="tram rail_urban rail rail_electric ship" speed="27.78" length="7.46" shape="1278.39,760.83 1278.08,763.06 1278.33,764.63 1278.72,766.22 1278.84,768.52"/>
    </edge>
    <edge id=":102381375_4" function="internal">
        <lane id=":102381375_4_0" index="0" disallow="tram rail_urban rail rail_electric ship" speed="20.84" length="5.93" shape="1278.39,760.83 1277.76,762.57 1276.89,763.77 1275.80,764.42 1274.48,764.53"/>
    </edge>
    <edge id=":121815695#2-AddedOnRampNode_0" function="internal">
        <lane id=":121815695#2-AddedOnRampNode_0_0" index="0" allow="bus bicycle" speed="27.78" length="0.30" shape="1456.43,659.77 1456.72,659.86"/>
        <lane id=":121815695#2-AddedOnRampNode_0_1" index="1" allow="bus coach" speed="27.78" length="0.30" shape="1455.38,662.90 1455.67,662.99"/>
        <lane id=":121815695#2-AddedOnRampNode_0_2" index="2" disallow="tram rail_urban rail rail_electric ship" speed="27.78" length="0.30" shape="1454.33,666.03 1454.62,666.12"/>
        <lane id=":121815695#2-AddedOnRampNode_0_3" index="3" disallow="tram rail_urban rail rail_electric ship" speed="27.78" length="0.30" shape="1453.29,669.16 1453.57,669.25"/>
    </edge>
    <edge id=":1237450447_0" function="internal">
        <lane id=":1237450447_0_0" index="0" allow="bus coach" speed="27.78" length="0.33" shape="1252.52,628.44 1252.31,628.39"/>
        <lane id=":1237450447_0_1" index="1" allow="bus coach" speed="27.78" length="0.33" shape="1253.41,625.26 1253.12,625.19"/>
        <lane id=":1237450447_0_2" index="2" speed="27.78" length="0.33" shape="1254.29,622.08 1253.94,621.99"/>
        <lane id=":1237450447_0_3" index="3" speed="27.78" length="0.33" shape="1255.18,618.91 1254.75,618.79"/>
    </edge>
    <edge id=":1297908110_0" function="internal">
        <lane id=":1297908110_0_0" index="0" disallow="tram rail_urban rail rail_electric ship" speed="27.78" length="0.27" shape="1142.06,813.19 1142.08,812.96"/>
        <lane id=":1297908110_0_1" index="1" disallow="tram rail_urban rail rail_electric ship" speed="27.78" length="0.27" shape="1145.33,813.60 1145.37,813.29"/>
    </edge>
    <edge id=":14113105_0" function="internal">
        <lane id=":14113105_0_0" index="0" allow="bus bicycle" speed="27.78" length="1.36" shape="1486.09,669.71 1488.37,670.52"/>
        <lane id=":14113105_0_1" index="1" allow="bus coach" speed="27.78" length="1.36" shape="1485.04,672.84 1486.07,673.14"/>
    </edge>
    <edge id=":14113105_2" function="internal">
        <lane id=":14113105_2_0" index="0" disallow="tram rail_urban rail rail_electric ship" speed="25.00" length="8.20" shape="1483.99,675.97 1489.17,669.61"/>
    </edge>
    <edge id=":14113105_3" function="internal">
        <lane id=":14113105_3_0" index="0" disallow="tram rail_urban rail rail_electric ship" speed="27.78" length="1.36" shape="1483.99,675.97 1483.77,675.76"/>
        <lane id=":14113105_3_1" index="1" disallow="tram rail_urban rail rail_electric ship" speed="27.78" length="1.36" shape="1482.94,679.10 1481.48,678.38"/>
    </edge>
    <edge id=":14528413_0" function="internal">
        <lane id=":14528413_0_0" index="0" disallow="tram rail_urban rail rail_electric ship" speed="27.78" length="0.66" shape="1457.76,923.20 1457.62,922.88 1457.54,922.66 1457.46,922.44 1457.36,922.11"/>
        <lane id=":14528413_0_1" index="1" disallow="tram rail_urban rail rail_electric ship" speed="27.78" length="0.66" shape="1460.80,921.94 1460.71,921.71 1460.65,921.55 1460.60,921.39 1460.52,921.16"/>
        <lane id=":14528413_0_2" index="2" disallow="tram rail_urban rail rail_electric ship" speed="27.78" length="0.66" shape="1463.85,920.67 1463.80,920.54 1463.76,920.44 1463.73,920.35 1463.68,920.21"/>
        <lane id=":14528413_0_3" index="3" disallow="tram rail_urban rail rail_electric ship" speed="27.78" length="0.66" shape="1466.90,919.41 1466.88,919.37 1466.87,919.34 1466.86,919.30 1466.85,919.26"/>
    </edge>
    <edge id=":149809339_0" function="internal">
        <lane id=":149809339_0_0" index="0" disallow="tram rail_urban rail rail_electric ship" speed="20.84" length="5.14" shape="1594.01,565.26 1595.42,565.50 1596.52,565.21 1597.31,564.40 1597.80,563.05"/>
    </edge>
    <edge id=":149809339_1" function="internal">
        <lane id=":149809339_1_0" index="0" disallow="tram rail_urban rail rail_electric ship" speed="13.89" length="9.82" shape="1594.01,565.26 1603.33,568.35"/>
    </edge>
    <edge id=":149809339_2" function="internal">
        <lane id=":149809339_2_0" index="0" disallow="tram rail_urban rail rail_electric ship" speed="27.78" length="6.80" shape="1596.27,569.58 1597.80,563.05"/>
        <lane id=":149809339_2_1" index="1" disallow="tram rail_urban rail rail_electric ship" speed="27.78" length="6.80" shape="1599.46,570.42 1601.03,563.71"/>
    </edge>
    <edge id=":149809339_4" function="internal">
        <lane id=":149809339_4_0" index="0" disallow="tram rail_urban rail rail_electric ship" speed="20.84" length="5.09" shape="1599.46,570.42 1600.01,569.13 1600.84,568.35 1601.95,568.09 1603.33,568.35"/>
    </edge>
    <edge id=":1639391687_0" function="internal">
        <lane id=":1639391687_0_0" index="0" disallow="tram rail_urban rail rail_electric ship" speed="25.00" length="11.59" shape="1583.42,633.70 1584.35,630.71 1585.15,628.42 1585.71,625.96 1585.89,622.45"/>
    </edge>
    <edge id=":1639391687_1" function="internal">
        <lane id=":1639391687_1_0" index="0" disallow="tram rail_urban rail rail_electric ship" speed="27.78" length="12.13" shape="1586.84,634.26 1587.36,631.16 1588.17,628.73 1588.90,626.11 1589.19,622.42"/>
    </edge>
    <edge id=":1639391745_0" function="internal">
        <lane id=":1639391745_0_0" index="0" allow="bus bicycle" speed="27.78" length="1.97" shape="1514.37,681.33 1515.65,683.62"/>
        <lane id=":1639391745_0_1" index="1" allow="bus coach" speed="27.78" length="1.97" shape="1513.10,684.38 1513.45,686.24"/>
    </edge>
    <edge id=":1639391745_2" function="internal">
        <lane id=":1639391745_2_0" index="0" disallow="tram rail_urban rail rail_electric ship" speed="25.00" length="8.34" shape="1511.83,687.43 1517.54,681.35"/>
    </edge>
    <edge id=":1639391745_3" function="internal">
        <lane id=":1639391745_3_0" index="0" disallow="tram rail_urban rail rail_electric ship" speed="27.78" length="1.97" shape="1511.83,687.43 1511.26,688.87"/>
        <lane id=":1639391745_3_1" index="1" disallow="tram rail_urban rail rail_electric ship" speed="27.78" length="1.97" shape="1510.56,690.47 1509.06,691.49"/>
    </edge>
    <edge id=":224458225_0" function="internal">
        <lane id=":224458225_0_0" index="0" disallow="tram rail_urban rail rail_electric ship" speed="13.89" length="5.06" shape="1354.76,501.31 1354.66,502.70 1355.03,503.77 1355.88,504.52 1357.20,504.95"/>
    </edge>
    <edge id=":224458225_1" function="internal">
        <lane id=":224458225_1_0" index="0" disallow="tram rail_urban rail rail_electric ship" speed="13.89" length="6.15" shape="1354.76,501.31 1353.41,507.35"/>
        <lane id=":224458225_1_1" index="1" disallow="tram rail_urban rail rail_electric ship" speed="13.89" length="6.15" shape="1351.54,500.59 1350.19,506.61"/>
        <lane id=":224458225_1_2" index="2" disallow="tram rail_urban rail rail_electric ship" speed="13.89" length="6.15" shape="1348.32,499.88 1346.97,505.88"/>
        <lane id=":224458225_1_3" index="3" disallow="tram rail_urban rail rail_electric ship" speed="13.89" length="6.15" shape="1345.10,499.17 1343.76,505.14"/>
        <lane id=":224458225_1_4" index="4" disallow="tram rail_urban rail rail_electric ship" speed="13.89" length="6.15" shape="1341.87,498.45 1340.54,504.40"/>
    </edge>
    <edge id=":224458435_0" function="internal">
        <lane id=":224458435_0_0" index="0" disallow="tram rail_urban rail rail_electric ship" speed="20.84" length="6.97" shape="1585.79,613.88 1585.53,612.30 1584.77,610.90 1583.52,609.68 1581.78,608.63"/>
    </edge>
    <edge id=":224458435_1" function="internal">
        <lane id=":224458435_1_0" index="0" disallow="tram rail_urban rail rail_electric ship" speed="27.78" length="9.76" shape="1585.79,613.88 1585.80,610.86 1585.98,608.79 1586.41,606.75 1587.19,603.83"/>
        <lane id=":224458435_1_1" index="1" disallow="tram rail_urban rail rail_electric ship" speed="27.78" length="9.76" shape="1589.09,613.84 1589.10,611.08 1589.27,609.20 1589.67,607.34 1590.38,604.67"/>
    </edge>
    <edge id=":224458435_3" function="internal">
        <lane id=":224458435_3_0" index="0" disallow="tram rail_urban rail rail_electric ship" speed="20.84" length="5.48" shape="1589.09,613.84 1589.29,612.27 1589.95,611.32 1591.05,611.00 1592.61,611.30"/>
    </edge>
    <edge id=":224458435_4" function="internal">
        <lane id=":224458435_4_0" index="0" disallow="tram rail_urban rail rail_electric ship" speed="20.84" length="5.24" shape="1583.21,605.66 1584.62,606.10 1585.75,605.95 1586.61,605.19 1587.19,603.83"/>
    </edge>
    <edge id=":224458435_5" function="internal">
        <lane id=":224458435_5_0" index="0" disallow="tram rail_urban rail rail_electric ship" speed="13.89" length="11.00" shape="1583.21,605.66 1585.92,607.23 1587.83,608.68 1589.78,610.03 1592.61,611.30"/>
    </edge>
    <edge id=":224458435_6" function="internal">
        <lane id=":224458435_6_0" index="0" disallow="tram rail_urban rail rail_electric ship" speed="13.89" length="4.82" shape="1583.21,605.66 1583.97,606.94 1583.98,607.86 1583.25,608.43 1581.78,608.63"/>
    </edge>
    <edge id=":224458469_0" function="internal">
        <lane id=":224458469_0_0" index="0" disallow="tram rail_urban rail rail_electric ship" speed="13.89" length="4.82" shape="1530.55,603.29 1529.35,602.41 1528.97,601.57 1529.42,600.76 1530.69,599.99"/>
    </edge>
    <edge id=":224458491_0" function="internal">
        <lane id=":224458491_0_0" index="0" allow="bus bicycle" speed="27.78" length="0.28" shape="1429.70,650.82 1429.89,650.88"/>
        <lane id=":224458491_0_1" index="1" allow="bus coach" speed="27.78" length="0.28" shape="1428.60,653.93 1428.84,654.01"/>
        <lane id=":224458491_0_2" index="2" disallow="tram rail_urban rail rail_electric ship" speed="27.78" length="0.28" shape="1427.49,657.04 1427.79,657.14"/>
        <lane id=":224458491_0_3" index="3" disallow="tram rail_urban rail rail_electric ship" speed="27.78" length="0.28" shape="1426.39,660.15 1426.74,660.27"/>
    </edge>
    <edge id=":224458508_0" function="internal">
        <lane id=":224458508_0_0" index="0" disallow="tram rail_urban rail rail_electric ship" speed="13.89" length="5.11" shape="1467.28,521.25 1467.16,522.61 1467.50,523.71 1468.31,524.57 1469.59,525.18"/>
    </edge>
    <edge id=":224458508_1" function="internal">
        <lane id=":224458508_1_0" index="0" disallow="tram rail_urban rail rail_electric ship" speed="13.89" length="6.40" shape="1467.28,521.25 1465.67,527.45"/>
    </edge>
    <edge id=":224458508_2" function="internal">
        <lane id=":224458508_2_0" index="0" disallow="tram rail_urban rail rail_electric ship" speed="13.89" length="2.41" shape="1467.28,521.25 1466.19,522.27 1465.29,522.48"/>
    </edge>
    <edge id=":224458508_9" function="internal">
        <lane id=":224458508_9_0" index="0" speed="13.89" length="2.41" shape="1465.29,522.48 1464.58,521.89 1464.06,520.49"/>
    </edge>
    <edge id=":224458508_3" function="internal">
        <lane id=":224458508_3_0" index="0" disallow="tram rail_urban rail rail_electric ship" speed="13.89" length="5.15" shape="1460.15,522.86 1461.60,522.92 1462.74,522.55 1463.56,521.74 1464.06,520.49"/>
    </edge>
    <edge id=":224458508_4" function="internal">
        <lane id=":224458508_4_0" index="0" disallow="tram rail_urban rail rail_electric ship" speed="13.89" length="9.73" shape="1460.15,522.86 1462.99,523.36 1464.93,523.77 1466.83,524.30 1469.59,525.18"/>
    </edge>
    <edge id=":224458508_5" function="internal">
        <lane id=":224458508_5_0" index="0" disallow="tram rail_urban rail rail_electric ship" speed="13.89" length="8.14" shape="1460.15,522.86 1462.93,523.57 1464.77,524.57 1465.69,525.86 1465.67,527.45"/>
    </edge>
    <edge id=":224458508_6" function="internal">
        <lane id=":224458508_6_0" index="0" disallow="tram rail_urban rail rail_electric ship" speed="13.89" length="6.27" shape="1462.49,526.56 1464.06,520.49"/>
    </edge>
    <edge id=":224458508_7" function="internal">
        <lane id=":224458508_7_0" index="0" disallow="tram rail_urban rail rail_electric ship" speed="13.89" length="3.17" shape="1462.49,526.56 1463.29,525.21 1464.73,524.53"/>
    </edge>
    <edge id=":224458508_8" function="internal">
        <lane id=":224458508_8_0" index="0" disallow="tram rail_urban rail rail_electric ship" speed="13.89" length="2.41" shape="1462.49,526.56 1463.62,525.59 1464.52,525.41"/>
    </edge>
    <edge id=":224458508_10" function="internal">
        <lane id=":224458508_10_0" index="0" speed="13.89" length="4.93" shape="1464.73,524.53 1466.83,524.52 1469.59,525.18"/>
    </edge>
    <edge id=":224458508_11" function="internal">
        <lane id=":224458508_11_0" index="0" speed="13.89" length="2.41" shape="1464.52,525.41 1465.21,526.03 1465.67,527.45"/>
    </edge>
    <edge id=":252521304_0" function="internal">
        <lane id=":252521304_0_0" index="0" allow="bus bicycle" speed="27.78" length="9.90" shape="1436.35,684.30 1427.21,681.18"/>
    </edge>
    <edge id=":252521304_1" function="internal">
        <lane id=":252521304_1_0" index="0" disallow="tram rail_urban rail rail_electric ship" speed="20.84" length="4.20" shape="1437.47,681.20 1435.76,681.02 1434.37,681.84"/>
    </edge>
    <edge id=":252521304_2" function="internal">
        <lane id=":252521304_2_0" index="0" allow="bus coach" speed="27.78" length="9.90" shape="1437.47,681.20 1428.19,678.03"/>
    </edge>
    <edge id=":252521304_3" function="internal">
        <lane id=":252521304_3_0" index="0" disallow="tram rail_urban rail rail_electric ship" speed="20.84" length="4.20" shape="1438.60,678.10 1435.23,677.58 1433.70,678.22"/>
    </edge>
    <edge id=":252521304_4" function="internal">
        <lane id=":252521304_4_0" index="0" disallow="tram rail_urban rail rail_electric ship" speed="27.78" length="9.90" shape="1438.60,678.10 1429.16,674.87"/>
        <lane id=":252521304_4_1" index="1" disallow="tram rail_urban rail rail_electric ship" speed="27.78" length="9.90" shape="1439.73,675.00 1430.14,671.72"/>
    </edge>
    <edge id=":252521304_6" function="internal">
        <lane id=":252521304_6_0" index="0" speed="20.84" length="5.04" shape="1434.37,681.84 1433.30,683.67 1432.55,686.49"/>
    </edge>
    <edge id=":252521304_7" function="internal">
        <lane id=":252521304_7_0" index="0" speed="20.84" length="9.26" shape="1433.70,678.22 1432.56,678.70 1430.58,681.48 1429.30,685.92"/>
    </edge>
    <edge id=":252521308_0" function="internal">
        <lane id=":252521308_0_0" index="0" disallow="tram rail_urban rail rail_electric ship" speed="13.89" length="0.10" shape="1223.80,758.66 1223.80,758.66"/>
    </edge>
    <edge id=":252524613_0" function="internal">
        <lane id=":252524613_0_0" index="0" disallow="tram rail_urban rail rail_electric ship" speed="13.89" length="7.24" shape="1115.23,430.48 1115.28,428.38 1115.76,426.98 1116.37,425.58 1116.81,423.48"/>
    </edge>
    <edge id=":252524613_1" function="internal">
        <lane id=":252524613_1_0" index="0" disallow="tram rail_urban rail rail_electric ship" speed="13.89" length="1.75" shape="1115.23,430.48 1115.48,428.74"/>
    </edge>
    <edge id=":252524613_2" function="internal">
        <lane id=":252524613_2_0" index="0" disallow="tram rail_urban rail rail_electric ship" speed="13.89" length="1.69" shape="1115.23,430.48 1115.93,429.16 1116.11,429.06"/>
    </edge>
    <edge id=":252524613_6" function="internal">
        <lane id=":252524613_6_0" index="0" speed="13.89" length="6.68" shape="1115.48,428.74 1116.63,427.59 1118.67,427.03 1121.61,427.05"/>
    </edge>
    <edge id=":252524613_7" function="internal">
        <lane id=":252524613_7_0" index="0" speed="13.89" length="3.13" shape="1116.11,429.06 1116.71,428.67 1117.58,429.00 1118.52,430.16"/>
    </edge>
    <edge id=":252524613_3" function="internal">
        <lane id=":252524613_3_0" index="0" disallow="tram rail_urban rail rail_electric ship" speed="13.89" length="6.16" shape="1112.04,426.12 1114.02,426.13 1115.47,425.69 1116.40,424.81 1116.81,423.48"/>
    </edge>
    <edge id=":252524613_4" function="internal">
        <lane id=":252524613_4_0" index="0" disallow="tram rail_urban rail rail_electric ship" speed="13.89" length="9.61" shape="1112.04,426.12 1121.61,427.05"/>
    </edge>
    <edge id=":252524613_5" function="internal">
        <lane id=":252524613_5_0" index="0" disallow="tram rail_urban rail rail_electric ship" speed="13.89" length="8.25" shape="1112.04,426.12 1114.75,426.61 1116.73,427.45 1117.99,428.63 1118.52,430.16"/>
    </edge>
    <edge id=":252524614_0" function="internal">
        <lane id=":252524614_0_0" index="0" disallow="tram rail_urban rail rail_electric ship" speed="20.84" length="5.09" shape="1229.32,437.07 1230.72,436.99 1231.74,436.48 1232.36,435.53 1232.58,434.14"/>
    </edge>
    <edge id=":252524614_1" function="internal">
        <lane id=":252524614_1_0" index="0" disallow="tram rail_urban rail rail_electric ship" speed="13.89" length="13.09" shape="1229.32,437.07 1242.33,438.52"/>
    </edge>
    <edge id=":252524614_2" function="internal">
        <lane id=":252524614_2_0" index="0" disallow="tram rail_urban rail rail_electric ship" speed="27.78" length="7.01" shape="1232.37,441.07 1232.58,434.14"/>
        <lane id=":252524614_2_1" index="1" disallow="tram rail_urban rail rail_electric ship" speed="27.78" length="7.01" shape="1235.67,441.21 1235.88,434.20"/>
        <lane id=":252524614_2_2" index="2" disallow="tram rail_urban rail rail_electric ship" speed="27.78" length="7.01" shape="1238.97,441.35 1239.18,434.26"/>
    </edge>
    <edge id=":252524614_5" function="internal">
        <lane id=":252524614_5_0" index="0" disallow="tram rail_urban rail rail_electric ship" speed="20.84" length="5.11" shape="1238.97,441.35 1239.23,439.95 1239.88,439.02 1240.91,438.54 1242.33,438.52"/>
    </edge>
    <edge id=":252524623_0" function="internal">
        <lane id=":252524623_0_0" index="0" disallow="tram rail_urban rail rail_electric ship" speed="13.89" length="7.16" shape="1361.66,455.30 1361.72,457.28 1362.56,458.61 1363.40,459.95 1363.48,461.93"/>
        <lane id=":252524623_0_1" index="1" disallow="tram rail_urban rail rail_electric ship" speed="13.89" length="7.16" shape="1358.44,454.55 1358.50,456.54 1359.34,457.88 1360.18,459.23 1360.26,461.22"/>
        <lane id=":252524623_0_2" index="2" disallow="tram rail_urban rail rail_electric ship" speed="13.89" length="7.16" shape="1355.23,453.80 1355.29,455.80 1356.12,457.15 1356.96,458.50 1357.04,460.50"/>
        <lane id=":252524623_0_3" index="3" disallow="tram rail_urban rail rail_electric ship" speed="13.89" length="7.16" shape="1352.02,453.06 1352.07,455.06 1352.90,456.42 1353.74,457.78 1353.82,459.79"/>
    </edge>
    <edge id=":252524623_4" function="internal">
        <lane id=":252524623_4_0" index="0" disallow="tram rail_urban rail rail_electric ship" speed="13.89" length="5.03" shape="1348.19,455.41 1349.50,455.86 1350.33,456.63 1350.70,457.70 1350.60,459.08"/>
    </edge>
    <edge id=":252524627_0" function="internal">
        <lane id=":252524627_0_0" index="0" disallow="tram rail_urban rail rail_electric ship" speed="13.89" length="9.55" shape="1495.84,394.76 1494.01,404.13"/>
    </edge>
    <edge id=":252524627_1" function="internal">
        <lane id=":252524627_1_0" index="0" disallow="tram rail_urban rail rail_electric ship" speed="13.89" length="4.82" shape="1495.84,394.76 1494.80,395.83 1493.91,396.08 1493.18,395.52 1492.60,394.15"/>
    </edge>
    <edge id=":252524627_2" function="internal">
        <lane id=":252524627_2_0" index="0" disallow="tram rail_urban rail rail_electric ship" speed="13.89" length="5.03" shape="1488.95,396.57 1490.33,396.66 1491.40,396.29 1492.15,395.45 1492.60,394.15"/>
    </edge>
    <edge id=":252524627_3" function="internal">
        <lane id=":252524627_3_0" index="0" disallow="tram rail_urban rail rail_electric ship" speed="13.89" length="7.91" shape="1488.26,399.80 1491.00,400.58 1492.87,401.56 1493.88,402.74 1494.01,404.13"/>
    </edge>
    <edge id=":252524627_4" function="internal">
        <lane id=":252524627_4_0" index="0" disallow="tram rail_urban rail rail_electric ship" speed="13.89" length="9.52" shape="1490.78,403.48 1492.60,394.15"/>
    </edge>
    <edge id=":252524627_5" function="internal">
        <lane id=":252524627_5_0" index="0" disallow="tram rail_urban rail rail_electric ship" speed="13.89" length="4.82" shape="1490.78,403.48 1491.83,402.43 1492.72,402.19 1493.45,402.76 1494.01,404.13"/>
    </edge>
    <edge id=":252524632_0" function="internal">
        <lane id=":252524632_0_0" index="0" disallow="tram rail_urban rail rail_electric ship" speed="13.89" length="4.98" shape="1491.42,432.69 1490.06,432.59 1488.99,432.95 1488.20,433.76 1487.71,435.03"/>
    </edge>
    <edge id=":252524632_1" function="internal">
        <lane id=":252524632_1_0" index="0" disallow="tram rail_urban rail rail_electric ship" speed="13.89" length="7.80" shape="1491.42,432.69 1488.73,431.91 1486.89,430.94 1485.91,429.76 1485.78,428.37"/>
    </edge>
    <edge id=":252524632_2" function="internal">
        <lane id=":252524632_2_0" index="0" disallow="tram rail_urban rail rail_electric ship" speed="13.89" length="6.14" shape="1489.02,429.02 1487.71,435.03"/>
    </edge>
    <edge id=":252524632_3" function="internal">
        <lane id=":252524632_3_0" index="0" disallow="tram rail_urban rail rail_electric ship" speed="13.89" length="2.41" shape="1489.02,429.02 1487.97,430.07 1487.08,430.32"/>
    </edge>
    <edge id=":252524632_6" function="internal">
        <lane id=":252524632_6_0" index="0" speed="13.89" length="2.41" shape="1487.08,430.32 1486.35,429.75 1485.78,428.37"/>
    </edge>
    <edge id=":252524632_4" function="internal">
        <lane id=":252524632_4_0" index="0" disallow="tram rail_urban rail rail_electric ship" speed="13.89" length="6.03" shape="1484.49,434.26 1485.78,428.37"/>
    </edge>
    <edge id=":252524632_5" function="internal">
        <lane id=":252524632_5_0" index="0" disallow="tram rail_urban rail rail_electric ship" speed="13.89" length="2.41" shape="1484.49,434.26 1485.58,433.25 1486.48,433.04"/>
    </edge>
    <edge id=":252524632_7" function="internal">
        <lane id=":252524632_7_0" index="0" speed="13.89" length="2.41" shape="1486.48,433.04 1487.19,433.63 1487.71,435.03"/>
    </edge>
    <edge id=":252524633_0" function="internal">
        <lane id=":252524633_0_0" index="0" disallow="tram rail_urban rail rail_electric ship" speed="20.84" length="5.02" shape="1618.15,463.27 1618.23,461.91 1617.85,460.84 1617.01,460.07 1615.71,459.59"/>
    </edge>
    <edge id=":252524633_1" function="internal">
        <lane id=":252524633_1_0" index="0" disallow="tram rail_urban rail rail_electric ship" speed="27.78" length="6.22" shape="1618.15,463.27 1619.38,457.18"/>
        <lane id=":252524633_1_1" index="1" disallow="tram rail_urban rail rail_electric ship" speed="27.78" length="6.22" shape="1621.38,463.93 1622.61,457.83"/>
    </edge>
    <edge id=":252524738_0" function="internal">