<?xml version="1.0"?>
<!-- generated on 2018-01-11 13:24:24.602762 by $Id: randomTrips.py 23999 2017-04-21 09:04:47Z behrisch $
  options: -n stgo.net.xml -p 2
-->
<routes xmlns:xsi="http://www.w3.org/2001/XMLSchema-instance" xsi:noNamespaceSchemaLocation="http://sumo.dlr.de/xsd/routes_file.xsd">
    <trip id="0" depart="0.00" from="23404794" to="23389989#1"/>
    <trip id="1" depart="2.00" from="42118505" to="-24444335#1"/>
    <trip id="2" depart="4.00" from="207815701#0" to="232166777#9"/>
    <trip id="3" depart="6.00" from="483731558#0" to="178547498#0"/>
    <trip id="4" depart="8.00" from="23393703" to="13876888"/>
    <trip id="5" depart="10.00" from="108852568#1" to="193600004#4"/>
    <trip id="6" depart="12.00" from="447774594#8" to="-20838832"/>
    <trip id="7" depart="14.00" from="23401444#5" to="75832168#0"/>
    <trip id="8" depart="16.00" from="-441333259#1" to="448518899#0"/>
    <trip id="9" depart="18.00" from="23401447#10" to="185138820#0"/>
    <trip id="10" depart="20.00" from="13858385#16" to="477783978#6"/>
    <trip id="11" depart="22.00" from="114077388#16" to="32841232#0"/>
    <trip id="12" depart="24.00" from="23401446#1" to="447597468#4"/>
    <trip id="13" depart="26.00" from="8001055#13" to="447075645#0"/>
    <trip id="14" depart="28.00" from="448736027#0" to="23401446#4"/>
    <trip id="15" depart="30.00" from="92361438#3" to="38956363#1"/>
    <trip id="16" depart="32.00" from="197841801" to="448374128"/>
    <trip id="17" depart="34.00" from="26103737" to="23401442#3"/>
    <trip id="18" depart="36.00" from="-23389989#4" to="149899988#0"/>
    <trip id="19" depart="38.00" from="149899957" to="445530544#1"/>
    <trip id="20" depart="40.00" from="300267261#4" to="8000909"/>
    <trip id="21" depart="42.00" from="20841899#6" to="187874115#2"/>
    <trip id="22" depart="44.00" from="121815663#0" to="92361438#9"/>
    <trip id="23" depart="46.00" from="448533599#0" to="-47531551#1"/>
    <trip id="24" depart="48.00" from="448396053#4" to="447077625#1"/>
    <trip id="25" depart="50.00" from="121815630#5" to="38956363#1"/>
    <trip id="26" depart="52.00" from="13870106#2" to="450432644#15"/>
    <trip id="27" depart="54.00" from="450426777#8" to="262442964#0"/>
    <trip id="28" depart="56.00" from="185138820#2" to="37356524#0"/>
    <trip id="29" depart="58.00" from="13870106#8" to="449485950"/>
    <trip id="30" depart="60.00" from="7981160#2" to="178547499#2"/>
    <trip id="31" depart="62.00" from="41765253#1" to="-448544762#2"/>
    <trip id="32" depart="64.00" from="448388093#0" to="13858385#22"/>
    <trip id="33" depart="66.00" from="321238225" to="175111020#8"/>
    <trip id="34" depart="68.00" from="297475576#0" to="47531551#1"/>
    <trip id="35" depart="70.00" from="39505602#14" to="207815699#2"/>
    <trip id="36" depart="72.00" from="278765387#5" to="215339436#5"/>
    <trip id="37" depart="74.00" from="442511193#1" to="447077624#1"/>
    <trip id="38" depart="76.00" from="23321902#1" to="41106830"/>
    <trip id="39" depart="78.00" from="23321897#0" to="447281177#1"/>
    <trip id="40" depart="80.00" from="38620496" to="24444473#1"/>
    <trip id="41" depart="82.00" from="24444473#10" to="447774594#11"/>
    <trip id="42" depart="84.00" from="32865023#8" to="-29213025"/>
    <trip id="43" depart="86.00" from="448518899#1" to="266815115"/>
    <trip id="44" depart="88.00" from="26114719" to="249771233"/>
    <trip id="45" depart="90.00" from="23400628" to="298599728#0"/>
    <trip id="46" depart="92.00" from="231177038#1" to="351905024#0"/>
    <trip id="47" depart="94.00" from="187874115#3" to="21189483#3"/>
    <trip id="48" depart="96.00" from="-197927802" to="121748551#2"/>
    <trip id="49" depart="98.00" from="207815699#3" to="146983133#0"/>
    <trip id="50" depart="100.00" from="207815533#0" to="447748358#3"/>
    <trip id="51" depart="102.00" from="266815116#1" to="23321898#0"/>
    <trip id="52" depart="104.00" from="194058533" to="24444473#17"/>
    <trip id="53" depart="106.00" from="32865023#8" to="40219211"/>
    <trip id="54" depart="108.00" from="197927803" to="544401976#3"/>
    <trip id="55" depart="110.00" from="257623914" to="450457592#2"/>
    <trip id="56" depart="112.00" from="447594410#1" to="449284320#1"/>
    <trip id="57" depart="114.00" from="-448515627#2" to="24444473#11"/>
    <trip id="58" depart="116.00" from="448172715#10" to="-47879673"/>
    <trip id="59" depart="118.00" from="33100804#0" to="448396053#16"/>
    <trip id="60" depart="120.00" from="-303126327#1" to="23400886#7"/>
    <trip id="61" depart="122.00" from="13870106#4" to="24444473#15"/>
    <trip id="62" depart="124.00" from="20841915#10" to="314247299"/>
    <trip id="63" depart="126.00" from="23401447#4" to="29213022"/>
    <trip id="64" depart="128.00" from="449627063#1" to="274554349"/>
    <trip id="65" depart="130.00" from="-303126327#1" to="447767940#1"/>
    <trip id="66" depart="132.00" from="13858385#3" to="215936724#4"/>
    <trip id="67" depart="134.00" from="278765389#0" to="29212960#0"/>
    <trip id="68" depart="136.00" from="445519010#1" to="366862512#6"/>
    <trip id="69" depart="138.00" from="-41764798#0" to="41764798#1"/>
    <trip id="70" depart="140.00" from="185295343" to="20896107#6"/>
    <trip id="71" depart="142.00" from="251035598#0" to="448388093#0"/>
    <trip id="72" depart="144.00" from="178547498#2" to="250118219#3"/>
    <trip id="73" depart="146.00" from="39505598#3" to="24444473#9"/>
    <trip id="74" depart="148.00" from="23401446#13" to="447744765#2"/>
    <trip id="75" depart="150.00" from="448521329#1" to="448370824#4"/>
    <trip id="76" depart="152.00" from="448172715#4" to="92361438#1"/>
    <trip id="77" depart="154.00" from="447077625#6" to="448172715#12"/>
    <trip id="78" depart="156.00" from="8001055#2" to="355547660#1"/>
    <trip id="79" depart="158.00" from="146983131#6" to="23389725#3"/>
    <trip id="80" depart="160.00" from="-20896112" to="207815696"/>
    <trip id="81" depart="162.00" from="444825658#0" to="450432644#6"/>
    <trip id="82" depart="164.00" from="20886747#5" to="48331989"/>
    <trip id="83" depart="166.00" from="24445401" to="448564072#1"/>
    <trip id="84" depart="168.00" from="448732497#0" to="449552151#3"/>
    <trip id="85" depart="170.00" from="447345893#1" to="441533817"/>
    <trip id="86" depart="172.00" from="477783978#4" to="449283226#4"/>
    <trip id="87" depart="174.00" from="215339437#0" to="42097650"/>
    <trip id="88" depart="176.00" from="447281177#5" to="447077625#4"/>
    <trip id="89" depart="178.00" from="26103751#0" to="279126823#3"/>
    <trip id="90" depart="180.00" from="32841147#5" to="156898441#3"/>
    <trip id="91" depart="182.00" from="447744765#1" to="14041297#1"/>
    <trip id="92" depart="184.00" from="23399418" to="442511193#1"/>
    <trip id="93" depart="186.00" from="450504176#1" to="447774594#0"/>
    <trip id="94" depart="188.00" from="450505892#0" to="193600004#3"/>
    <trip id="95" depart="190.00" from="376312630#2" to="157032684#12"/>
    <trip id="96" depart="192.00" from="232166777#3" to="415340023#9"/>
    <trip id="97" depart="194.00" from="331303477#4" to="445530544#3"/>
    <trip id="98" depart="196.00" from="187874115#1" to="38619761#3"/>
    <trip id="99" depart="198.00" from="14063331#4" to="207815699#11"/>
    <trip id="100" depart="200.00" from="39333617#0" to="39505781#1"/>
    <trip id="101" depart="202.00" from="27989186" to="207815701#3"/>
    <trip id="102" depart="204.00" from="453310654#6" to="24446001#1"/>
    <trip id="103" depart="206.00" from="517269785#1" to="32840250#1"/>
    <trip id="104" depart="208.00" from="477783978#5" to="-448180370"/>
    <trip id="105" depart="210.00" from="24445975#0" to="447275473#0"/>
    <trip id="106" depart="212.00" from="23400886#10" to="450426788#3"/>
    <trip id="107" depart="214.00" from="24445977#11" to="20841919"/>
    <trip id="108" depart="216.00" from="23401446#20" to="196178590#2"/>
    <trip id="109" depart="218.00" from="32839917#0" to="447719401#4"/>
    <trip id="110" depart="220.00" from="121815663#1" to="146983133#2"/>
    <trip id="111" depart="222.00" from="8001013#2" to="296903511#7"/>
    <trip id="112" depart="224.00" from="20896107#4" to="23401449"/>
    <trip id="113" depart="226.00" from="121815695#0" to="108852603#2"/>
    <trip id="114" depart="228.00" from="-20891194#4" to="13895297#4"/>
    <trip id="115" depart="230.00" from="121815663#1" to="23401447#4"/>
    <trip id="116" depart="232.00" from="26103737" to="544689108"/>
    <trip id="117" depart="234.00" from="41765253#1" to="-173295533"/>
    <trip id="118" depart="236.00" from="23321902#0" to="36935792#1"/>
    <trip id="119" depart="238.00" from="448172715#0" to="8000986#0"/>
    <trip id="120" depart="240.00" from="14041293#3" to="448370824#9"/>
    <trip id="121" depart="242.00" from="20837123#4" to="448396053#0"/>
    <trip id="122" depart="244.00" from="149899927#1" to="7981319#9"/>
    <trip id="123" depart="246.00" from="196178587#2" to="441533818#4"/>
    <trip id="124" depart="248.00" from="20896094#1" to="26103717#0"/>
    <trip id="125" depart="250.00" from="92360514" to="75832168#0"/>
    <trip id="126" depart="252.00" from="23321627" to="196178590#2"/>
    <trip id="127" depart="254.00" from="32865023#10" to="448573382#0"/>
    <trip id="128" depart="256.00" from="52101455#9" to="449627063#0"/>
    <trip id="129" depart="258.00" from="415340023#1" to="-186703205"/>
    <trip id="130" depart="260.00" from="450432641#1" to="26103685#0"/>
    <trip id="131" depart="262.00" from="215339436#1" to="444825661#0"/>
    <trip id="132" depart="264.00" from="242669436#0" to="20837124#2"/>
    <trip id="133" depart="266.00" from="185139146#0" to="13920356#3"/>
    <trip id="134" depart="268.00" from="11490169" to="14041293#2"/>
    <trip id="135" depart="270.00" from="242669436#0" to="23400886#3"/>
    <trip id="136" depart="272.00" from="443094736#0" to="-20886747#7"/>
    <trip id="137" depart="274.00" from="52101455#5" to="448576395#2"/>
    <trip id="138" depart="276.00" from="13895297#7" to="450504288#2"/>
    <trip id="139" depart="278.00" from="8001013#0" to="13858385#14"/>
    <trip id="140" depart="280.00" from="351905024#0" to="-79429170"/>
    <trip id="141" depart="282.00" from="20867437#1" to="321238219#1"/>
    <trip id="142" depart="284.00" from="114077388#0" to="-11490169"/>
    <trip id="143" depart="286.00" from="399499076#17" to="215936724#3"/>
    <trip id="144" depart="288.00" from="448172715#10" to="38621540#1"/>
    <trip id="145" depart="290.00" from="146983147#1" to="92361438#2"/>
    <trip id="146" depart="292.00" from="-20838832" to="-47531551#2"/>
    <trip id="147" depart="294.00" from="445519010#1" to="72839412"/>
    <trip id="148" depart="296.00" from="450432641#3" to="325052236#0"/>
    <trip id="149" depart="298.00" from="106288151#2" to="449627061#3"/>
    <trip id="150" depart="300.00" from="211200708" to="444825660#2"/>
    <trip id="151" depart="302.00" from="26114751" to="157032684#8"/>
    <trip id="152" depart="304.00" from="23401444#3" to="175111020#4"/>
    <trip id="153" depart="306.00" from="445545294#4" to="121815630#4"/>
    <trip id="154" depart="308.00" from="8000667#2" to="108852603#2"/>
    <trip id="155" depart="310.00" from="28968012#1" to="449485950"/>
    <trip id="156" depart="312.00" from="215339436#6" to="39334084"/>
    <trip id="157" depart="314.00" from="23393526" to="187874117#0"/>
    <trip id="158" depart="316.00" from="38956363#0" to="157032684#20"/>
    <trip id="159" depart="318.00" from="449283359#1" to="-37356552"/>
    <trip id="160" depart="320.00" from="445535002#0" to="368978860"/>
    <trip id="161" depart="322.00" from="366862517#3" to="8001013#6"/>
    <trip id="162" depart="324.00" from="170945231" to="447281177#0"/>
    <trip id="163" depart="326.00" from="149899927#6" to="23322356#3"/>
    <trip id="164" depart="328.00" from="449485952#0" to="180567954#3"/>
    <trip id="165" depart="330.00" from="20891191" to="278765387#0"/>
    <trip id="166" depart="332.00" from="-23321902#1" to="450504383#0"/>
    <trip id="167" depart="334.00" from="13858385#23" to="215339436#5"/>
    <trip id="168" depart="336.00" from="447275473#1" to="175111020#1"/>
    <trip id="169" depart="338.00" from="20896125" to="445511087#1"/>
    <trip id="170" depart="340.00" from="447593877#1" to="351906989"/>
    <trip id="171" depart="342.00" from="208594135#2" to="441460018"/>
    <trip id="172" depart="344.00" from="449485952#1" to="20838832"/>
    <trip id="173" depart="346.00" from="266815116#0" to="114077388#18"/>
    <trip id="174" depart="348.00" from="39505602#6" to="450432644#19"/>
    <trip id="175" depart="350.00" from="20886747#4" to="108852603#5"/>
    <trip id="176" depart="352.00" from="26103751#0" to="8000035"/>
    <trip id="177" depart="354.00" from="509474851" to="13858385#1"/>
    <trip id="178" depart="356.00" from="450426788#10" to="450426788#8"/>
    <trip id="179" depart="358.00" from="197927801" to="450432644#3"/>
    <trip id="180" depart="360.00" from="35670955#6" to="23635124#1"/>
    <trip id="181" depart="362.00" from="453308980" to="207822766#3"/>
    <trip id="182" depart="364.00" from="449552152#4" to="355547660#7"/>
    <trip id="183" depart="366.00" from="447748358#3" to="448533600#0"/>
    <trip id="184" depart="368.00" from="301793540#0" to="41764798#3"/>
    <trip id="185" depart="370.00" from="108852568#1" to="13870106#5"/>
    <trip id="186" depart="372.00" from="448370087" to="39505781#1"/>
    <trip id="187" depart="374.00" from="32839851" to="41744321"/>
    <trip id="188" depart="376.00" from="368978860" to="450457592#5"/>
    <trip id="189" depart="378.00" from="447774594#11" to="186703263"/>
    <trip id="190" depart="380.00" from="24444473#5" to="517269785#7"/>
    <trip id="191" depart="382.00" from="-20888309#0" to="24445108#0"/>
    <trip id="192" depart="384.00" from="441533818#0" to="-40219216"/>
    <trip id="193" depart="386.00" from="106288151#0" to="23401446#8"/>
    <trip id="194" depart="388.00" from="27989209" to="450426788#10"/>
    <trip id="195" depart="390.00" from="146983139#0" to="23401447#20"/>
    <trip id="196" depart="392.00" from="448515629" to="39505602#7"/>
    <trip id="197" depart="394.00" from="23321901" to="-303126327#0"/>
    <trip id="198" depart="396.00" from="448533600#2" to="114077388#18"/>
    <trip id="199" depart="398.00" from="449283361" to="23321899#0"/>
    <trip id="200" depart="400.00" from="24445977#3" to="20837121#3"/>
    <trip id="201" depart="402.00" from="108852603#2" to="447748358#2"/>
    <trip id="202" depart="404.00" from="223300795#6" to="208594137"/>
    <trip id="203" depart="406.00" from="-23389989#2" to="450432644#19"/>
    <trip id="204" depart="408.00" from="23399910#0" to="121815695#0"/>
    <trip id="205" depart="410.00" from="251035598#2" to="29213018"/>
    <trip id="206" depart="412.00" from="441533818#3" to="447748358#5"/>
    <trip id="207" depart="414.00" from="185138821#2" to="14246773"/>
    <trip id="208" depart="416.00" from="-20896112" to="445511087#6"/>
    <trip id="209" depart="418.00" from="242669436#3" to="23401446#15"/>
    <trip id="210" depart="420.00" from="448396053#19" to="175111020#13"/>
    <trip id="211" depart="422.00" from="183365613" to="39505602#15"/>
    <trip id="212" depart="424.00" from="13895297#3" to="450426177#0"/>
    <trip id="213" depart="426.00" from="448396053#8" to="376312630#7"/>
    <trip id="214" depart="428.00" from="185139146#0" to="157032684#0"/>
    <trip id="215" depart="430.00" from="441333259#1" to="114077388#13"/>
    <trip id="216" depart="432.00" from="33101067" to="449627061#0"/>
    <trip id="217" depart="434.00" from="447748358#3" to="447719397#2"/>
    <trip id="218" depart="436.00" from="448669802#1" to="207815533#1"/>
    <trip id="219" depart="438.00" from="114077388#4" to="232166777#4"/>
    <trip id="220" depart="440.00" from="449552152#3" to="447597467"/>
    <trip id="221" depart="442.00" from="325052236#5" to="448396052#0"/>
    <trip id="222" depart="444.00" from="23401447#19" to="447751132"/>
    <trip id="223" depart="446.00" from="445511087#6" to="33101449#0"/>
    <trip id="224" depart="448.00" from="7981157" to="208594135#3"/>
    <trip id="225" depart="450.00" from="92361438#6" to="450432644#2"/>
    <trip id="226" depart="452.00" from="399499076#14" to="14041303#2"/>
    <trip id="227" depart="454.00" from="450457592#2" to="13858385#14"/>
    <trip id="228" depart="456.00" from="92361438#4" to="24445977#16"/>
    <trip id="229" depart="458.00" from="92361438#9" to="399499076#11"/>
    <trip id="230" depart="460.00" from="448217175#2" to="23401446#15"/>
    <trip id="231" depart="462.00" from="208159321#2" to="25003439#0"/>
    <trip id="232" depart="464.00" from="149899994" to="32865023#1"/>
    <trip id="233" depart="466.00" from="8001055#8" to="13858385#7"/>
    <trip id="234" depart="468.00" from="38619574" to="8001055#0"/>
    <trip id="235" depart="470.00" from="407593363#0" to="453310300#1"/>
    <trip id="236" depart="472.00" from="355547661" to="146983131#0"/>
    <trip id="237" depart="474.00" from="23401446#4" to="518091963#7"/>
    <trip id="238" depart="476.00" from="223300795#5" to="450457592#7"/>
    <trip id="239" depart="478.00" from="185138820#1" to="157032684#11"/>
    <trip id="240" depart="480.00" from="23401446#9" to="449627061#4"/>
    <trip id="241" depart="482.00" from="14581659#2" to="448172715#8"/>
    <trip id="242" depart="484.00" from="7981317" to="447281177#2"/>
    <trip id="243" depart="486.00" from="215339436#2" to="179553151"/>
    <trip id="244" depart="488.00" from="157032684#5" to="108834521"/>
    <trip id="245" depart="490.00" from="36935792#1" to="242669472#3"/>
    <trip id="246" depart="492.00" from="20842373#0" to="208594135#0"/>
    <trip id="247" depart="494.00" from="23635124#0" to="14041276#1"/>
    <trip id="248" depart="496.00" from="450457592#1" to="447767940#1"/>
    <trip id="249" depart="498.00" from="450504288#1" to="207815699#13"/>
    <trip id="250" depart="500.00" from="448180363#0" to="278765386#1"/>
    <trip id="251" depart="502.00" from="7991807#3" to="179550212#0"/>
    <trip id="252" depart="504.00" from="23401448" to="121748551#0"/>
    <trip id="253" depart="506.00" from="26114759" to="-23400887"/>
    <trip id="254" depart="508.00" from="121815661#1" to="300267262#4"/>
    <trip id="255" depart="510.00" from="13876888" to="208159378"/>
    <trip id="256" depart="512.00" from="450426777#8" to="293727759#4"/>
    <trip id="257" depart="514.00" from="-449552151#0" to="180567954#1"/>
    <trip id="258" depart="516.00" from="11490172#5" to="447774594#11"/>
    <trip id="259" depart="518.00" from="41203238#1" to="37356524#1"/>
    <trip id="260" depart="520.00" from="38619761#0" to="14584727"/>
    <trip id="261" depart="522.00" from="185139146#1" to="448515627#2"/>
    <trip id="262" depart="524.00" from="-346376353#1" to="442511193#0"/>
    <trip id="263" depart="526.00" from="27989204" to="331303477#2"/>
    <trip id="264" depart="528.00" from="-20886747#3" to="20896107#1"/>
    <trip id="265" depart="530.00" from="215339436#5" to="449627063#1"/>
    <trip id="266" depart="532.00" from="37356524#1" to="441194576"/>
    <trip id="267" depart="534.00" from="146983148" to="399499076#10"/>
    <trip id="268" depart="536.00" from="207815699#8" to="32865037#1"/>
    <trip id="269" depart="538.00" from="20891194#1" to="32865023#8"/>
    <trip id="270" depart="540.00" from="443083832#1" to="20842373#4"/>
    <trip id="271" depart="542.00" from="23400754#8" to="215339436#4"/>
    <trip id="272" depart="544.00" from="-441533819" to="121815695#4"/>
    <trip id="273" depart="546.00" from="185138820#1" to="23401442#5"/>
    <trip id="274" depart="548.00" from="157032684#3" to="37356524#0"/>
    <trip id="275" depart="550.00" from="26103749#1" to="32841196"/>
    <trip id="276" depart="552.00" from="24445977#19" to="23401447#24"/>
    <trip id="277" depart="554.00" from="146983146#0" to="208159321#0"/>
    <trip id="278" depart="556.00" from="250118216#1" to="442129508"/>
    <trip id="279" depart="558.00" from="157032684#17" to="366862512#1"/>
    <trip id="280" depart="560.00" from="8001055#14" to="449283360#0"/>
    <trip id="281" depart="562.00" from="121815661#3" to="20837124#1"/>
    <trip id="282" depart="564.00" from="23401447#8" to="448732497#1"/>
    <trip id="283" depart="566.00" from="13870106#6" to="448172715#5"/>
    <trip id="284" depart="568.00" from="193600004#3" to="448180363#0"/>
    <trip id="285" depart="570.00" from="8001013#5" to="415340024"/>
    <trip id="286" depart="572.00" from="448533600#0" to="450504177#4"/>
    <trip id="287" depart="574.00" from="242669472#1" to="37356525"/>
    <trip id="288" depart="576.00" from="255612675#0" to="32839851"/>
    <trip id="289" depart="578.00" from="231355413#1" to="-20837125"/>
    <trip id="290" depart="580.00" from="39505602#2" to="156898441#1"/>
    <trip id="291" depart="582.00" from="26103751#0" to="447077625#2"/>
    <trip id="292" depart="584.00" from="-41764798#3" to="448576395#2"/>
    <trip id="293" depart="586.00" from="448721017#4" to="23389989#0"/>
    <trip id="294" depart="588.00" from="-52637894#0" to="92361438#9"/>
    <trip id="295" depart="590.00" from="157032684#14" to="13858385#26"/>
    <trip id="296" depart="592.00" from="20842373#0" to="279126823#1"/>
    <trip id="297" depart="594.00" from="14246773" to="399499076#16"/>
    <trip id="298" depart="596.00" from="329980732" to="207815699#9"/>
    <trip id="299" depart="598.00" from="23401446#18" to="146983139#0"/>
    <trip id="300" depart="600.00" from="26103534#0" to="23401442#5"/>
    <trip id="301" depart="602.00" from="278765387#1" to="39505781#0"/>
    <trip id="302" depart="604.00" from="8000698" to="448180367#1"/>
    <trip id="303" depart="606.00" from="385515282#1" to="442348158#1"/>
    <trip id="304" depart="608.00" from="215936724#1" to="300267262#2"/>
    <trip id="305" depart="610.00" from="447275905#0" to="447076663"/>
    <trip id="306" depart="612.00" from="445511088#1" to="448564072#0"/>
    <trip id="307" depart="614.00" from="47561929#0" to="121815630#6"/>
    <trip id="308" depart="616.00" from="24444473#1" to="448370824#3"/>
    <trip id="309" depart="618.00" from="329980732" to="14421621#1"/>
    <trip id="310" depart="620.00" from="43706053#1" to="193600004#2"/>
    <trip id="311" depart="622.00" from="157032684#12" to="20886747#1"/>
    <trip id="312" depart="624.00" from="180567954#0" to="42118505"/>
    <trip id="313" depart="626.00" from="-23321902#1" to="-56005489#1"/>
    <trip id="314" depart="628.00" from="450504156#0" to="208159321#4"/>
    <trip id="315" depart="630.00" from="39505602#0" to="23401442#3"/>
    <trip id="316" depart="632.00" from="448396053#19" to="41106674"/>
    <trip id="317" depart="634.00" from="114077388#14" to="208159378"/>
    <trip id="318" depart="636.00" from="13858436#0" to="-190639961"/>
    <trip id="319" depart="638.00" from="23322355#1" to="32865023#0"/>
    <trip id="320" depart="640.00" from="13858411#3" to="351906988"/>
    <trip id="321" depart="642.00" from="232168565#0" to="26296717#2"/>
    <trip id="322" depart="644.00" from="179550004#0" to="444825660#0"/>
    <trip id="323" depart="646.00" from="300267262#2" to="-32865037#1"/>
    <trip id="324" depart="648.00" from="453310300#1" to="-448544762#3"/>
    <trip id="325" depart="650.00" from="23401447#14" to="7991807#4"/>
    <trip id="326" depart="652.00" from="448396053#6" to="26103530"/>
    <trip id="327" depart="654.00" from="23401447#24" to="34766233#2"/>
    <trip id="328" depart="656.00" from="544370788" to="24444473#5"/>
    <trip id="329" depart="658.00" from="-448515627#1" to="355547660#3"/>
    <trip id="330" depart="660.00" from="447275473#0" to="450426788#10"/>
    <trip id="331" depart="662.00" from="453309208#4" to="450426777#4"/>
    <trip id="332" depart="664.00" from="30595392" to="24445977#9"/>
    <trip id="333" depart="666.00" from="450504155" to="24444473#14"/>
    <trip id="334" depart="668.00" from="13858385#20" to="-20886747#1"/>
    <trip id="335" depart="670.00" from="39505602#16" to="23393699#2"/>
    <trip id="336" depart="672.00" from="450426777#9" to="8000985#0"/>
    <trip id="337" depart="674.00" from="453310300#1" to="207815699#6"/>
    <trip id="338" depart="676.00" from="39505598#1" to="532294030#0"/>
    <trip id="339" depart="678.00" from="121748551#1" to="26103573"/>
    <trip id="340" depart="680.00" from="519185500" to="23401446#3"/>
    <trip id="341" depart="682.00" from="447593878#2" to="447748358#0"/>
    <trip id="342" depart="684.00" from="157032684#12" to="449627061#2"/>
    <trip id="343" depart="686.00" from="23402309#0" to="23400886#9"/>
    <trip id="344" depart="688.00" from="448560504#4" to="448669802#3"/>
    <trip id="345" depart="690.00" from="517269785#5" to="20837123#4"/>
    <trip id="346" depart="692.00" from="331303475#0" to="20891186#1"/>
    <trip id="347" depart="694.00" from="196178590#1" to="215936722#1"/>
    <trip id="348" depart="696.00" from="121747182#1" to="296903511#9"/>
    <trip id="349" depart="698.00" from="447726895#0" to="121815695#4"/>
    <trip id="350" depart="700.00" from="26103710" to="206675917"/>
    <trip id="351" depart="702.00" from="24445993#1" to="14041276#1"/>
    <trip id="352" depart="704.00" from="23401447#26" to="445511087#3"/>
    <trip id="353" depart="706.00" from="415340023#7" to="83638682"/>
    <trip id="354" depart="708.00" from="-52637893#0" to="351905024#1"/>
    <trip id="355" depart="710.00" from="-14063320#2" to="39505600"/>
    <trip id="356" depart="712.00" from="32841186#2" to="448573382#0"/>
    <trip id="357" depart="714.00" from="449627061#3" to="447075646#2"/>
    <trip id="358" depart="716.00" from="83638608#2" to="223300795#2"/>
    <trip id="359" depart="718.00" from="201704217#0" to="85536703#0"/>
    <trip id="360" depart="720.00" from="251035598#0" to="41078113"/>
    <trip id="361" depart="722.00" from="24444473#10" to="-26114757"/>
    <trip id="362" depart="724.00" from="178547498#1" to="447748358#1"/>
    <trip id="363" depart="726.00" from="24445401" to="20891194#2"/>
    <trip id="364" depart="728.00" from="47531551#2" to="293481653"/>
    <trip id="365" depart="730.00" from="448533600#0" to="39505602#6"/>
    <trip id="366" depart="732.00" from="23401446#3" to="517269785#3"/>
    <trip id="367" depart="734.00" from="23406489#0" to="448667505"/>
    <trip id="368" depart="736.00" from="447597467" to="187874115#3"/>
    <trip id="369" depart="738.00" from="448227024#0" to="7981160#2"/>
    <trip id="370" depart="740.00" from="446611065#0" to="208594135#6"/>
    <trip id="371" depart="742.00" from="23401447#24" to="-52637893#0"/>
    <trip id="372" depart="744.00" from="447077625#1" to="35670955#4"/>
    <trip id="373" depart="746.00" from="20841899#1" to="13858385#21"/>
    <trip id="374" depart="748.00" from="23401446#5" to="442129507#1"/>
    <trip id="375" depart="750.00" from="407593364" to="39333617#1"/>
    <trip id="376" depart="752.00" from="450432644#5" to="27989071#3"/>
    <trip id="377" depart="754.00" from="14063331#1" to="20841915#0"/>
    <trip id="378" depart="756.00" from="13858385#3" to="445545294#5"/>
    <trip id="379" depart="758.00" from="23400754#5" to="-79429170"/>
    <trip id="380" depart="760.00" from="399499076#12" to="-20886747#8"/>
    <trip id="381" depart="762.00" from="23401446#3" to="-20891194#4"/>
    <trip id="382" depart="764.00" from="448396052#1" to="447719397#0"/>
    <trip id="383" depart="766.00" from="283701208" to="517269785#3"/>
    <trip id="384" depart="768.00" from="27989071#6" to="35670955#5"/>
    <trip id="385" depart="770.00" from="448721017#0" to="13858385#7"/>
    <trip id="386" depart="772.00" from="207815698#3" to="215339436#5"/>
    <trip id="387" depart="774.00" from="-20886747#8" to="23393526"/>
    <trip id="388" depart="776.00" from="215936724#1" to="450426777#4"/>
    <trip id="389" depart="778.00" from="449627062#1" to="175111020#4"/>
    <trip id="390" depart="780.00" from="13858385#20" to="448373174#2"/>
    <trip id="391" depart="782.00" from="444825658#0" to="29213060"/>
    <trip id="392" depart="784.00" from="-223300796" to="23393727#0"/>
    <trip id="393" depart="786.00" from="399499076#4" to="13858385#10"/>
    <trip id="394" depart="788.00" from="149899927#2" to="447075646#1"/>
    <trip id="395" depart="790.00" from="26103717#0" to="442511193#1"/>
    <trip id="396" depart="792.00" from="23404793#2" to="179550212#0"/>
    <trip id="397" depart="794.00" from="13870106#4" to="449627063#1"/>
    <trip id="398" depart="796.00" from="215936724#1" to="41074798#1"/>
    <trip id="399" depart="798.00" from="445530544#0" to="114077388#5"/>
    <trip id="400" depart="800.00" from="52101455#9" to="444936869#1"/>
    <trip id="401" depart="802.00" from="114077388#10" to="185139146#0"/>
    <trip id="402" depart="804.00" from="24446001#0" to="442511193#1"/>
    <trip id="403" depart="806.00" from="331303477#6" to="33100801"/>
    <trip id="404" depart="808.00" from="24445977#9" to="296903511#2"/>
    <trip id="405" depart="810.00" from="39505602#6" to="32839917#0"/>
    <trip id="406" depart="812.00" from="197841801" to="331303477#3"/>
    <trip id="407" depart="814.00" from="453310653#2" to="242669435#1"/>
    <trip id="408" depart="816.00" from="34766233#0" to="223300795#3"/>
    <trip id="409" depart="818.00" from="376312630#3" to="448180364#0"/>
    <trip id="410" depart="820.00" from="32841186#1" to="448172715#15"/>
    <trip id="411" depart="822.00" from="175111020#15" to="193600004#3"/>
    <trip id="412" depart="824.00" from="92361438#6" to="250118215#2"/>
    <trip id="413" depart="826.00" from="13858385#15" to="448396053#10"/>
    <trip id="414" depart="828.00" from="20896114" to="509474852"/>
    <trip id="415" depart="830.00" from="366862512#3" to="-449552151#3"/>