<routes>
   <vType id="typePassenger" accel="2.6" decel="4.5" sigma="0.5" length="2.5" minGap="1" maxSpeed="19" guiShape="passenger"/>
   <vType id="typeBus" accel="0.8" decel="4.5" sigma="0.5" length="10" minGap="3" maxSpeed="19" guiShape="bus"/>

   <route id="route0" edges="-39539626 -5445204#2 -5445204#1 113939244#2 -126606716 23339459 30405358#1 85355912 85355911#0 85355911#1 30405356 5931612 30350450#0 30350450#1 30350450#2 4006702#0 4006702#1 4900043 4900041#1"/>

   <route id="route1" edges="31241835#1 -31241835#1 -31241816#3 31241851#0 31241851#1 31241851#2 -31255203#0 -4006702#0 4319352#1 44069041#0 44069041#1 25472079 30405352 30350445 -33174302#1 -33174302#0 -32270595 -29900561#1 -29900561#0 -4006688#4 -4006688#3 10712013"/>

   <route id="route2" edges="-28631632 28613727#1 -94344940#0 28768072 -28613737 -4006702#0 4319352#1 44069041#0 44069041#1 25472079 30405352 30350445 -33174302#1 -33174302#0 -32270595 8402997 8402998#1 8402998#2 29900564#1 29900564#2 -29900564#2"/>

   <route id="route3" edges="-8402997 32270595 33174302#0 33174302#1 4686970#0 4686970#1 122161381 30350448 8364476 30350450#0 -3998645#2 -3998645#1"/>

   <route id="route4" edges="32302591#0 32302591#1 32302591#2 32302591#3 32302591#4 32302591#5 33174302#0 33174302#1 4686970#0 4686970#1 122161381 30350448 8364476 30350450#0 -3998645#2 -3998645#1 -4006726#2 -4006726#1 -4006726#0"/>

   <route id="route5" edges="10419402 -4006693#1 -23605595 -8403007 -29900564#1 -8402998#2 -8402998#1 -8402997 32270595 -29900565#3"/>
    
   <route id="route6" edges="-31255203#0 -4006702#0 4319352#1 44069041#0 44069041#1 25472079 30405352 30350445 -33174302#1 -33174302#0 -32302591#5 -32302591#4 -32302591#3 -32302591#2 -32302591#1 -32302591#0 -125685391"/>

   <route id="route7" edges="85355912 85355911#0 85355911#1 30405356 5931612 30350450#0 30350450#1 30350450#2 4006702#0 31255203#0 31255203#1 31241838#0"/>

   <route id="route8" edges="-4099270#0 4006726#2 -3998645#0 -3998612#0 30357194 25472299 30350448 30350449 4047309 30751813 -35842306#1 -35842306#0"/>
    
   <route id="route9" edges="-4006726#0 -3998615#0 3013106#2 4006702#0 28613737 94344941 94344940#0 67076129"/>
   
   <route id="route10" edges="31241855#1 31241853#1 -31241838#0 -31255203#1 -31255203#0 -4006702#0 4319352#1 44069041#0 25472134 30751813 -35842306#1 -35842306#0 -4900741 -4900739#2 4690348"/>

   <route id="route11" edges="-29900564#3 -29900564#2 -29900564#1 -8402998#2 -8402998#1 -8402997 32270595 33174302#0 33174302#1 4686970#0 4686970#1 122161381 30350448 8364476 30350450#0 30350450#1 30350450#2 4006702#0 4006702#1 4006702#2 -23805514#1 -23805514#0"/>
 
   <route id="route12" edges="-31241835#1 -31241816#3 31241851#0 31241851#1 31241851#2 -31255203#0 -4006702#0 4319352#1 44069041#0 44069041#1 25472079 30405352 30350445 -33174302#1 -33174302#0 -32270595 -29900561#1 -29900561#0 -4006688#4 -4006688#3 -4006688#2 -4006688#1 -4006688#0 -31401017#0 -29900567 -31401018 -4047532"/>
    
   <route id="route13" edges="-31255203#0 -4006702#0 -3013106#2 -3013106#1 -3013106#0 -10573414#1 4047378 4006724#1 4872369 -4006725#0"/>

   <route id="route14" edges="-4006691 29900565#1 29900565#2 29900565#3 33174302#0 33174302#1 4686970#0 4686970#1 122161381 30350448 8364476 30350450#0 30350450#1 30350450#2 4006702#0 4006702#1 4006702#2 -23805514#1"/>
    
   <route id="route15" edges="-4006693#1 -23605595 -8403007 -29900564#1 -8402998#2 -8402998#1 -8402997 32270595 33174302#0 33174302#1 4686970#0 4686970#1 122161381 30350448 8364476 30350450#0 30350450#1 30350450#2 4006702#0 28613737 94344941 94344940#0 94344940#2"/>

   <route id="route16" edges="4047378 4006724#1 4872369 4006725#1 -3998612#0 30357194 25472299 30350448 30350449 4400949 31982182#0 4047241 4797872 4797871 4006668 126606716 113939242#0 113939242#1 113939242#2 113939241 -37591481"/>

   <route id="route17" edges="-31777493#0 31777493#0 31777493#1 35842306#0 35842306#1 4047446#0 4047446#1 25472079 30405352 30350445 -33174302#1 -33174302#0 -32270595 -29900561#1 -29900561#0 -8403001"/>

   <route id="route18" edges="4006688#0 4006688#1 4006688#2 4006688#3 4006688#4 29900564#0 29900564#1 29900564#2 29900564#3 29900564#4"/>

   <route id="route19" edges="31241855#0 31241816#0 31241816#1 31241851#0 31241851#1 31241851#2 -31255203#0 28613737 94344941 94344940#0 -28613727#1 -28613727#0 -28613734"/>
    <vehicle id="0" type="typePassenger" route="route4" depart="0" departPos="random"/>
    <vehicle id="1" type="typeBus" route="route18" depart="0" departPos="random"/>
    <vehicle id="2" type="typePassenger" route="route13" depart="0" departPos="random"/>
    <vehicle id="3" type="typePassenger" route="route7" depart="0" departPos="random"/>
    <vehicle id="4" type="typePassenger" route="route11" depart="0" departPos="random"/>
    <vehicle id="5" type="typePassenger" route="route13" depart="0" departPos="random"/>
    <vehicle id="6" type="typePassenger" route="route8" depart="0" departPos="random"/>
    <vehicle id="7" type="typeBus" route="route2" depart="0" departPos="random"/>
    <vehicle id="8" type="typePassenger" route="route3" depart="0" departPos="random"/>
    <vehicle id="9" type="typePassenger" route="route12" depart="0" departPos="random"/>
    <vehicle id="10" type="typeBus" route="route15" depart="0" departPos="random"/>
    <vehicle id="11" type="typeBus" route="route17" depart="0" departPos="random"/>
    <vehicle id="12" type="typePassenger" route="route4" depart="0" departPos="random"/>
    <vehicle id="13" type="typePassenger" route="route14" depart="0" departPos="random"/>
    <vehicle id="14" type="typeBus" route="route13" depart="0" departPos="random"/>
    <vehicle id="15" type="typeBus" route="route18" depart="0" departPos="random"/>
    <vehicle id="16" type="typePassenger" route="route19" depart="0" departPos="random"/>
    <vehicle id="17" type="typeBus" route="route6" depart="0" departPos="random"/>
    <vehicle id="18" type="typePassenger" route="route12" depart="0" departPos="random"/>
    <vehicle id="19" type="typeBus" route="route17" depart="0" departPos="random"/>
    <vehicle id="20" type="typePassenger" route="route6" depart="0" departPos="random"/>
    <vehicle id="21" type="typeBus" route="route13" depart="0" departPos="random"/>
    <vehicle id="22" type="typePassenger" route="route13" depart="0" departPos="random"/>
    <vehicle id="23" type="typePassenger" route="route7" depart="0" departPos="random"/>
    <vehicle id="24" type="typeBus" route="route2" depart="0" departPos="random"/>
    <vehicle id="25" type="typePassenger" route="route14" depart="0" departPos="random"/>
    <vehicle id="26" type="typePassenger" route="route14" depart="0" departPos="random"/>
    <vehicle id="27" type="typePassenger" route="route17" depart="0" departPos="random"/>
    <vehicle id="28" type="typePassenger" route="route6" depart="0" departPos="random"/>
    <vehicle id="29" type="typeBus" route="route1" depart="0" departPos="random"/>
    <vehicle id="30" type="typeBus" route="route17" depart="0" departPos="random"/>
    <vehicle id="31" type="typePassenger" route="route15" depart="0" departPos="random"/>
    <vehicle id="32" type="typeBus" route="route13" depart="0" departPos="random"/>
    <vehicle id="33" type="typeBus" route="route17" depart="0" departPos="random"/>
    <vehicle id="34" type="typePassenger" route="route14" depart="0" departPos="random"/>
    <vehicle id="35" type="typePassenger" route="route8" depart="0" departPos="random"/>
    <vehicle id="36" type="typePassenger" route="route19" depart="0" departPos="random"/>
    <vehicle id="37" type="typeBus" route="route8" depart="0" departPos="random"/>
    <vehicle id="38" type="typePassenger" route="route13" depart="0" departPos="random"/>
    <vehicle id="39" type="typePassenger" route="route9" depart="0" departPos="random"/>
    <vehicle id="40" type="typePassenger" route="route5" depart="0" departPos="random"/>
    <vehicle id="41" type="typeBus" route="route13" depart="0" departPos="random"/>
    <vehicle id="42" type="typePassenger" route="route17" depart="0" departPos="random"/>
    <vehicle id="43" type="typePassenger" route="route18" depart="0" departPos="random"/>
    <vehicle id="44" type="typePassenger" route="route17" depart="0" departPos="random"/>
    <vehicle id="45" type="typePassenger" route="route14" depart="0" departPos="random"/>
    <vehicle id="46" type="typeBus" route="route3" depart="0" departPos="random"/>
    <vehicle id="47" type="typeBus" route="route3" depart="0" departPos="random"/>
    <vehicle id="48" type="typePassenger" route="route1" depart="0" departPos="random"/>
    <vehicle id="49" type="typeBus" route="route11" depart="0" departPos="random"/>
    <vehicle id="50" type="typeBus" route="route6" depart="0" departPos="random"/>
    <vehicle id="51" type="typeBus" route="route13" depart="0" departPos="random"/>
    <vehicle id="52" type="typeBus" route="route19" depart="0" departPos="random"/>
    <vehicle id="53" type="typePassenger" route="route14" depart="0" departPos="random"/>
    <vehicle id="54" type="typePassenger" route="route9" depart="0" departPos="random"/>
    <vehicle id="55" type="typePassenger" route="route17" depart="0" departPos="random"/>
    <vehicle id="56" type="typePassenger" route="route0" depart="0" departPos="random"/>
    <vehicle id="57" type="typePassenger" route="route18" depart="0" departPos="random"/>
    <vehicle id="58" type="typePassenger" route="route10" depart="0" departPos="random"/>
    <vehicle id="59" type="typePassenger" route="route3" depart="0" departPos="random"/>
    <vehicle id="60" type="typePassenger" route="route15" depart="0" departPos="random"/>
    <vehicle id="61" type="typeBus" route="route10" depart="0" departPos="random"/>
    <vehicle id="62" type="typePassenger" route="route7" depart="0" departPos="random"/>
    <vehicle id="63" type="typePassenger" route="route18" depart="0" departPos="random"/>
    <vehicle id="64" type="typePassenger" route="route6" depart="0" departPos="random"/>
    <vehicle id="65" type="typeBus" route="route17" depart="0" departPos="random"/>
    <vehicle id="66" type="typePassenger" route="route16" depart="0" departPos="random"/>
    <vehicle id="67" type="typePassenger" route="route5" depart="0" departPos="random"/>
    <vehicle id="68" type="typePassenger" route="route6" depart="0" departPos="random"/>
    <vehicle id="69" type="typePassenger" route="route13" depart="0" departPos="random"/>
    <vehicle id="70" type="typeBus" route="route10" depart="0" departPos="random"/>
    <vehicle id="71" type="typePassenger" route="route4" depart="0" departPos="random"/>
    <vehicle id="72" type="typeBus" route="route9" depart="0" departPos="random"/>
    <vehicle id="73" type="typeBus" route="route9" depart="0" departPos="random"/>
    <vehicle id="74" type="typePassenger" route="route16" depart="0" departPos="random"/>
    <vehicle id="75" type="typeBus" route="route16" depart="0" departPos="random"/>
    <vehicle id="76" type="typePassenger" route="route14" depart="0" departPos="random"/>
    <vehicle id="77" type="typeBus" route="route15" depart="0" departPos="random"/>
    <vehicle id="78" type="typeBus" route="route16" depart="0" departPos="random"/>
    <vehicle id="79" type="typePassenger" route="route7" depart="0" departPos="random"/>
    <vehicle id="80" type="typeBus" route="route17" depart="0" departPos="random"/>
    <vehicle id="81" type="typeBus" route="route17" depart="0" departPos="random"/>
    <vehicle id="82" type="typePassenger" route="route2" depart="0" departPos="random"/>
    <vehicle id="83" type="typePassenger" route="route10" depart="0" departPos="random"/>
    <vehicle id="84" type="typeBus" route="route16" depart="0" departPos="random"/>
    <vehicle id="85" type="typePassenger" route="route0" depart="0" departPos="random"/>
    <vehicle id="86" type="typePassenger" route="route14" depart="0" departPos="random"/>
    <vehicle id="87" type="typePassenger" route="route3" depart="0" departPos="random"/>
    <vehicle id="88" type="typePassenger" route="route11" depart="0" departPos="random"/>
    <vehicle id="89" type="typePassenger" route="route9" depart="0" departPos="random"/>
    <vehicle id="90" type="typePassenger" route="route14" depart="0" departPos="random"/>
    <vehicle id="91" type="typeBus" route="route3" depart="0" departPos="random"/>
    <vehicle id="92" type="typePassenger" route="route15" depart="0" departPos="random"/>
    <vehicle id="93" type="typePassenger" route="route17" depart="0" departPos="random"/>
    <vehicle id="94" type="typePassenger" route="route14" depart="0" departPos="random"/>
    <vehicle id="95" type="typeBus" route="route7" depart="0" departPos="random"/>
    <vehicle id="96" type="typeBus" route="route16" depart="0" departPos="random"/>
    <vehicle id="97" type="typePassenger" route="route13" depart="0" departPos="random"/>
    <vehicle id="98" type="typePassenger" route="route7" depart="0" departPos="random"/>
    <vehicle id="99" type="typePassenger" route="route1" depart="0" departPos="random"/>
    <vehicle id="100" type="typePassenger" route="route7" depart="0" departPos="random"/>
    <vehicle id="101" type="typePassenger" route="route3" depart="0" departPos="random"/>
    <vehicle id="102" type="typeBus" route="route1" depart="0" departPos="random"/>
    <vehicle id="103" type="typePassenger" route="route6" depart="0" departPos="random"/>
    <vehicle id="104" type="typePassenger" route="route6" depart="0" departPos="random"/>
    <vehicle id="105" type="typePassenger" route="route3" depart="0" departPos="random"/>
    <vehicle id="106" type="typePassenger" route="route19" depart="0" departPos="random"/>
    <vehicle id="107" type="typePassenger" route="route13" depart="0" departPos="random"/>
    <vehicle id="108" type="typePassenger" route="route18" depart="0" departPos="random"/>
    <vehicle id="109" type="typePassenger" route="route5" depart="0" departPos="random"/>
    <vehicle id="110" type="typePassenger" route="route15" depart="0" departPos="random"/>
    <vehicle id="111" type="typePassenger" route="route3" depart="0" departPos="random"/>
    <vehicle id="112" type="typePassenger" route="route9" depart="0" departPos="random"/>
    <vehicle id="113" type="typePassenger" route="route17" depart="0" departPos="random"/>
    <vehicle id="114" type="typePassenger" route="route5" depart="0" departPos="random"/>
    <vehicle id="115" type="typePassenger" route="route10" depart="0" departPos="random"/>
    <vehicle id="116" type="typePassenger" route="route13" depart="0" departPos="random"/>
    <vehicle id="117" type="typePassenger" route="route4" depart="0" departPos="random"/>
    <vehicle id="118" type="typePassenger" route="route15" depart="0" departPos="random"/>
    <vehicle id="119" type="typePassenger" route="route3" depart="0" departPos="random"/>
    <vehicle id="120" type="typePassenger" route="route5" depart="0" departPos="random"/>
    <vehicle id="121" type="typePassenger" route="route17" depart="0" departPos="random"/>
    <vehicle id="122" type="typePassenger" route="route1" depart="0" departPos="random"/>
    <vehicle id="123" type="typePassenger" route="route19" depart="0" departPos="random"/>
    <vehicle id="124" type="typePassenger" route="route8" depart="0" departPos="random"/>
    <vehicle id="125" type="typePassenger" route="route15" depart="0" departPos="random"/>
    <vehicle id="126" type="typeBus" route="route12" depart="0" departPos="random"/>
    <vehicle id="127" type="typeBus" route="route18" depart="0" departPos="random"/>
    <vehicle id="128" type="typePassenger" route="route18" depart="0" departPos="random"/>
    <vehicle id="129" type="typePassenger" route="route13" depart="0" departPos="random"/>
    <vehicle id="130" type="typeBus" route="route4" depart="0" departPos="random"/>
    <vehicle id="131" type="typePassenger" route="route7" depart="0" departPos="random"/>
    <vehicle id="132" type="typeBus" route="route8" depart="0" departPos="random"/>
    <vehicle id="133" type="typeBus" route="route11" depart="0" departPos="random"/>
    <vehicle id="134" type="typePassenger" route="route17" depart="0" departPos="random"/>
    <vehicle id="135" type="typePassenger" route="route19" depart="0" departPos="random"/>
    <vehicle id="136" type="typePassenger" route="route12" depart="0" departPos="random"/>
    <vehicle id="137" type="typePassenger" route="route1" depart="0" departPos="random"/>
    <vehicle id="138" type="typePassenger" route="route17" depart="0" departPos="random"/>
    <vehicle id="139" type="typePassenger" route="route13" depart="0" departPos="random"/>
    <vehicle id="140" type="typePassenger" route="route19" depart="0" departPos="random"/>
    <vehicle id="141" type="typePassenger" route="route15" depart="0" departPos="random"/>
    <vehicle id="142" type="typeBus" route="route18" depart="0" departPos="random"/>
    <vehicle id="143" type="typePassenger" route="route9" depart="0" departPos="random"/>
    <vehicle id="144" type="typePassenger" route="route5" depart="0" departPos="random"/>
    <vehicle id="145" type="typeBus" route="route12" depart="0" departPos="random"/>
    <vehicle id="146" type="typePassenger" route="route1" depart="0" departPos="random"/>
    <vehicle id="147" type="typePassenger" route="route18" depart="0" departPos="random"/>
    <vehicle id="148" type="typePassenger" route="route10" depart="0" departPos="random"/>
    <vehicle id="149" type="typePassenger" route="route9" depart="0" departPos="random"/>
    <vehicle id="150" type="typePassenger" route="route19" depart="0" departPos="random"/>
    <vehicle id="151" type="typePassenger" route="route17" depart="0" departPos="random"/>
    <vehicle id="152" type="typePassenger" route="route10" depart="0" departPos="random"/>
    <vehicle id="153" type="typePassenger" route="route5" depart="0" departPos="random"/>
    <vehicle id="154" type="typeBus" route="route19" depart="0" departPos="random"/>
    <vehicle id="155" type="typePassenger" route="route5" depart="0" departPos="random"/>
    <vehicle id="156" type="typePassenger" route="route1" depart="0" departPos="random"/>
    <vehicle id="157" type="typePassenger" route="route3" depart="0" departPos="random"/>
    <vehicle id="158" type="typePassenger" route="route1" depart="0" departPos="random"/>
    <vehicle id="159" type="typePassenger" route="route5" depart="0" departPos="random"/>
    <vehicle id="160" type="typePassenger" route="route16" depart="0" departPos="random"/>
    <vehicle id="161" type="typePassenger" route="route3" depart="0" departPos="random"/>
    <vehicle id="162" type="typePassenger" route="route2" depart="0" departPos="random"/>
    <vehicle id="163" type="typePassenger" route="route0" depart="0" departPos="random"/>
    <vehicle id="164" type="typePassenger" route="route1" depart="0" departPos="random"/>
    <vehicle id="165" type="typePassenger" route="route18" depart="0" departPos="random"/>
    <vehicle id="166" type="typePassenger" route="route12" depart="0" departPos="random"/>
    <vehicle id="167" type="typeBus" route="route19" depart="0" departPos="random"/>
    <vehicle id="168" type="typePassenger" route="route18" depart="0" departPos="random"/>
    <vehicle id="169" type="typeBus" route="route5" depart="0" departPos="random"/>
    <vehicle id="170" type="typePassenger" route="route14" depart="0" departPos="random"/>
    <vehicle id="171" type="typeBus" route="route9" depart="0" departPos="random"/>
    <vehicle id="172" type="typePassenger" route="route5" depart="0" departPos="random"/>
    <vehicle id="173" type="typeBus" route="route1" depart="0" departPos="random"/>
    <vehicle id="174" type="typePassenger" route="route8" depart="0" departPos="random"/>
    <vehicle id="175" type="typePassenger" route="route9" depart="0" departPos="random"/>
    <vehicle id="176" type="typePassenger" route="route7" depart="0" departPos="random"/>
    <vehicle id="177" type="typePassenger" route="route2" depart="0" departPos="random"/>
    <vehicle id="178" type="typeBus" route="route8" depart="0" departPos="random"/>
    <vehicle id="179" type="typePassenger" route="route9" depart="0" departPos="random"/>
    <vehicle id="180" type="typePassenger" route="route18" depart="0" departPos="random"/>
    <vehicle id="181" type="typePassenger" route="route18" depart="0" departPos="random"/>
    <vehicle id="182" type="typeBus" route="route6" depart="0" departPos="random"/>
    <vehicle id="183" type="typeBus" route="route5" depart="0" departPos="random"/>
    <vehicle id="184" type="typePassenger" route="route4" depart="0" departPos="random"/>
    <vehicle id="185" type="typePassenger" route="route18" depart="0" departPos="random"/>
    <vehicle id="186" type="typePassenger" route="route17" depart="0" departPos="random"/>
    <vehicle id="187" type="typePassenger" route="route14" depart="0" departPos="random"/>
    <vehicle id="188" type="typePassenger" route="route11" depart="0" departPos="random"/>
    <vehicle id="189" type="typePassenger" route="route11" depart="0" departPos="random"/>
    <vehicle id="190" type="typePassenger" route="route4" depart="0" departPos="random"/>
    <vehicle id="191" type="typeBus" route="route8" depart="0" departPos="random"/>
    <vehicle id="192" type="typePassenger" route="route2" depart="0" departPos="random"/>
    <vehicle id="193" type="typePassenger" route="route0" depart="0" departPos="random"/>
    <vehicle id="194" type="typePassenger" route="route4" depart="0" departPos="random"/>
    <vehicle id="195" type="typePassenger" route="route16" depart="0" departPos="random"/>
    <vehicle id="196" type="typePassenger" route="route7" depart="0" departPos="random"/>
    <vehicle id="197" type="typePassenger" route="route17" depart="0" departPos="random"/>
    <vehicle id="198" type="typePassenger" route="route7" depart="0" departPos="random"/>
    <vehicle id="199" type="typePassenger" route="route16" depart="0" departPos="random"/>
    <flow id="flow0" type="typePassenger" route="route0" begin="0" period="3" number="195"/>
    <flow id="flow1" type="typePassenger" route="route1" begin="0" period="3" number="195"/>
    <flow id="flow2" type="typeBus" route="route2" begin="0" period="3" number="195"/>
    <flow id="flow3" type="typePassenger" route="route3" begin="0" period="3" number="195"/>
    <flow id="flow4" type="typePassenger" route="route4" begin="0" period="3" number="195"/>
    <flow id="flow5" type="typeBus" route="route5" begin="0" period="3" number="195"/>
    <flow id="flow6" type="typePassenger" route="route6" begin="0" period="3" number="195"/>
    <flow id="flow7" type="typePassenger" route="route7" begin="0" period="3" number="195"/>
    <flow id="flow8" type="typePassenger" route="route8" begin="0" period="3" number="195"/>
    <flow id="flow9" type="typeBus" route="route9" begin="0" period="3" number="195"/>
    <flow id="flow10" type="typePassenger" route="route10" begin="0" period="3" number="195"/>
    <flow id="flow11" type="typePassenger" route="route11" begin="0" period="3" number="195"/>
    <flow id="flow12" type="typePassenger" route="route12" begin="0" period="3" number="195"/>
    <flow id="flow13" type="typePassenger" route="route13" begin="0" period="3" number="195"/>
    <flow id="flow14" type="typePassenger" route="route14" begin="0" period="3" number="195"/>
    <flow id="flow15" type="typePassenger" route="route15" begin="0" period="3" number="195"/>
    <flow id="flow16" type="typePassenger" route="route16" begin="0" period="3" number="195"/>
    <flow id="flow17" type="typePassenger" route="route17" begin="0" period="3" number="195"/>
    <flow id="flow18" type="typePassenger" route="route18" begin="0" period="3" number="195"/>
    <flow id="flow19" type="typeBus" route="route19" begin="0" period="3" number="195"/>
</routes>
