<?xml version="1.0"?>

<routes>

    <vTypeDistribution id="private">
        <vType vClass="passenger" id="passenger1"  color=".8,.2,.2" accel="2.6" decel="4.5" sigma="0.5" length="5.0" minGap="1.5" maxSpeed="70" probability=".40" speedDev="0.1" guiShape="passenger/sedan"/>
        <vType vClass="passenger" id="passenger2a" color=".8,.8,.8" accel="3.0" decel="4.5" sigma="0.5" length="4.5" minGap="1.5" maxSpeed="50" probability=".20" speedDev="0.1" guiShape="passenger/hatchback"/>
        <vType vClass="passenger" id="passenger2b" color=".2,.2,.8" accel="2.8" decel="4.5" sigma="0.5" length="4.5" minGap="1.0" maxSpeed="50" probability=".20" speedDev="0.1" guiShape="passenger/hatchback"/>
        <vType vClass="passenger" id="passenger3"  color=".3,.3,.3" accel="2.7" decel="4.5" sigma="0.5" length="6.0" minGap="1.5" maxSpeed="70" probability=".10" speedDev="0.1" guiShape="passenger/wagon"/>
        <vType vClass="passenger" id="passenger4"  color=".9,.9,.9" accel="2.4" decel="4.5" sigma="0.5" length="5.5" minGap="1.5" maxSpeed="30" probability=".05" speedDev="0.1" guiShape="passenger/van"/>
        <vType vClass="passenger" id="passenger5"  color=".8,.8,.0" accel="2.3" decel="4.5" sigma="0.5" length="7.0" minGap="2.5" maxSpeed="30" probability=".05" speedDev="0.1" guiShape="delivery"/>
    </vTypeDistribution>
	<vType vClass="bus" id="bus" accel="2.6" decel="4.5" sigma="0.5" length="12.0" minGap="3" maxSpeed="30" speedDev="0.1" guiShape="bus">
    <param key="has.rerouting.device" value="false"/>
    </vType>
  
    <vehicle id="randUni18368:1" type="passenger2a" depart="0.00" departPos="random" departSpeed="0.00" arrivalPos="random" arrivalSpeed="0.00">
        <route edges="-31606#0 -31606#1 --31634 --30768#1 --30768#0 -31230#2 -32628 --31272#2 --31272#1 --31272#0 -30528#21 -30528#22 -30528#23 -30528#24 -30528#25 -30528#26 -30528#27 -30528#28 -30528#29 -30528#30 -31888#0 -31888#1 -30496#4"/>
    </vehicle>
