[General]
cmdenv-express-mode = true
cmdenv-autoflush = true
cmdenv-status-frequency = 1s
**.cmdenv-log-level = info

ned-path = . 
image-path = ../../images

network = Scenario_stg1

##########################################################
#            Simulation parameters                       #
##########################################################
debug-on-errors = true
print-undisposed = false

sim-time-limit = 1000s

**.scalar-recording = true
**.vector-recording = true

**.debug = false
**.coreDebug = false

*.playgroundSizeX = 2500m
*.playgroundSizeY = 2500m
*.playgroundSizeZ = 50m


##########################################################
# Annotation parameters                                  #
##########################################################
*.annotations.draw = true

##########################################################
# Obstacle parameters                                    #
##########################################################
*.obstacles.debug = false
*.obstacles.obstacles = xmldoc("config.xml", "//AnalogueModel[@type='SimpleObstacleShadowing']/obstacles")

##########################################################
#            TraCIScenarioManager parameters             #
##########################################################
*.manager.updateInterval = 1s
*.manager.host = "localhost"
*.manager.port = 9999
*.manager.autoShutdown = true
*.manager.launchConfig = xmldoc("stgo1.launchd.xml")
#*.manager.roiRects = "20,20-30,30 20,20-30,30"

# Número de Vehiculos
#*.manager.numVehicles = 2000

##########################################################
#                       RSU SETTINGS                     #
#                                                        #
#                                                        #
##########################################################
*.rsu[0].mobility.x = 500
*.rsu[0].mobility.y = 500
*.rsu[0].mobility.z = 3

*.rsu[*].applType = "TraCIDemoRSU11p"
*.rsu[*].appl.headerLength = 80 bit
*.rsu[*].appl.sendBeacons = false
*.rsu[*].appl.dataOnSch = false
*.rsu[*].appl.beaconInterval = 0.1s
*.rsu[*].appl.beaconUserPriority = 7
*.rsu[*].appl.dataUserPriority = 5

##########################################################
#            11p specific parameters                     #
#                                                        #
#                    NIC-Settings                        #
##########################################################
*.connectionManager.sendDirect = true
*.connectionManager.maxInterfDist = 2600m
*.connectionManager.drawMaxIntfDist = false

*.**.nic.mac1609_4.useServiceChannel = false

*.**.nic.mac1609_4.txPower = 20mW
*.**.nic.mac1609_4.bitrate = 6Mbps
*.**.nic.phy80211p.sensitivity = -89dBm

*.**.nic.phy80211p.useThermalNoise = true
*.**.nic.phy80211p.thermalNoise = -110dBm

*.**.nic.phy80211p.decider = xmldoc("config.xml")
*.**.nic.phy80211p.analogueModels = xmldoc("config.xml")
*.**.nic.phy80211p.usePropagationDelay = true
*.**.nic.phy80211p.collectCollisionStatistics = true

*.**.nic.phy80211p.antenna = xmldoc("antenna.xml", "/root/Antenna[@id='monopole']")

##########################################################
#                    WaveAppLayer                        #
##########################################################
*.node[*].applType = "myWaveAppLayer"
*.node[*].appl.headerLength = 80 bit
*.node[*].appl.sendBeacons = true
*.node[*].appl.dataOnSch = false
*.node[*].appl.beaconInterval = 1s

##########################################################
#                      Mobility                          #
##########################################################
*.node[*].veinsmobilityType.debug = true
*.node[*].veinsmobility.x = 0
*.node[*].veinsmobility.y = 0
*.node[*].veinsmobility.z = 1.895
*.node[*].veinsmobility.accidentCount = 1
*.node[*].veinsmobility.accidentStart = 3s
*.node[*].veinsmobility.accidentDuration = 20s
*.node[*].appl.Accident_start = 3

[Config WithoutChSw-slotted]

*.node[*].appl.Slotted1Enabled = true
*.node[*].appl.Slotted_Ns = 3
*.node[*].appl.Slotted_R = 500 #40
*.node[*].appl.Slotted_tau = 0.005 #0.32 #1.45
*.node[*].appl.beaconInterval = ${0.1s,0.5s}


[Config WithoutChSw-TrAD]

*.node[*].appl.TrAD = true
*.node[*].appl.TrAD_ti = 0.005
*.node[*].appl.TrAD_alpha = 10 
*.node[*].appl.TrAD_Neig = 25
*.node[*].appl.TrAD_R = 366 
*.node[*].appl.beaconInterval = 0.1s # ${0.1s,0.5s}
sim-time-limit = 1000s

[Config WithoutChSw-WSA-slotted-PerWSM]

*.node[*].appl.Slotted1Enabled = true
*.node[*].appl.Slotted_Ns = 7 #5
*.node[*].appl.Slotted_R = 500 #40
*.node[*].appl.Slotted_tau = 0.005#1.45
*.node[*].appl.beaconInterval = 0.1s #${0.1s,0.5s}

#
*.node[*].appl.sendWSA = true
*.node[*].appl.Send_Per_WSM= true

*.node[*].veinsmobility.accidentCount = 1
*.node[*].veinsmobility.accidentStart = 700s
*.node[*].veinsmobility.accidentDuration = 200s

*.node[*].appl.Accident_start = 700

sim-time-limit = 1000s

[Config WithoutChSw-WSA-TrAD-PerWSM]

*.node[*].appl.TrAD = true
*.node[*].appl.TrAD_ti = 0.005
*.node[*].appl.TrAD_alpha = 10 
*.node[*].appl.TrAD_Neig = 25
*.node[*].appl.TrAD_R = 366 
*.node[*].appl.beaconInterval = 0.1 #${0.1s,0.5s}

*.node[*].appl.sendWSA = true
*.node[*].appl.Send_Per_WSM= true

*.node[*].veinsmobility.accidentCount = 1
*.node[*].veinsmobility.accidentStart = 700s
*.node[*].veinsmobility.accidentDuration = 200s

*.node[*].appl.Accident_start = 700

[Config WithChSw-slotted-WSMper]

*.node[*].appl.Slotted1Enabled = true
*.node[*].appl.Slotted_Ns = 7
*.node[*].appl.Slotted_R = 300 #40
*.node[*].appl.Slotted_tau = 0.005 #1.45

*.node[*].appl.beaconInterval = 0.5s #${0.1s,0.5s}
#*.node[*].appl.beaconAtTime = 5s

*.manager.firstStepAt = 20s

*.**.nic.mac1609_4.useServiceChannel = true
*.node[*].appl.dataOnSch = true

*.node[*].appl.Send_Per_WSM = true
*.node[*].appl.sendWSA = false

*.node[455].veinsmobility.accidentCount = 1
*.node[455].veinsmobility.accidentStart = 25s
*.node[455].veinsmobility.accidentDuration = 3s
*.node[*].appl.Accident_start = 25

sim-time-limit = 27s

#*.annotations.draw = true
*.manager.roiRects = "1217,481-1417,681" #x,y-X,Y "1217.11,1217.11-481.6,481.6 1417,1417-681.6,681.6"

[Config WithChSw-TrAD-WSMper]

*.node[*].appl.TrAD = true
*.node[*].appl.TrAD_ti = 0.005
*.node[*].appl.TrAD_alpha = 10 
*.node[*].appl.TrAD_Neig = 25
*.node[*].appl.TrAD_R = 366 

*.node[*].appl.beaconInterval = 0.5s #${0.1s,0.5s}
#*.node[*].appl.beaconAtTime = 5s

*.manager.firstStepAt = 20s

*.**.nic.mac1609_4.useServiceChannel = true
*.node[*].appl.dataOnSch = true

*.node[*].appl.Send_Per_WSM= true
*.node[*].appl.sendWSA = false


*.node[455].veinsmobility.accidentCount = 1
*.node[455].veinsmobility.accidentStart = 25s
*.node[455].veinsmobility.accidentDuration = 3s
*.node[*].appl.Accident_start = 25


sim-time-limit = 27s

[Config WithChannelSwitching]
*.**.nic.mac1609_4.useServiceChannel = true
*.node[*].appl.dataOnSch = true
*.rsu[*].appl.dataOnSch = true


