 [General]
cmdenv-express-mode = true
cmdenv-autoflush = true
cmdenv-status-frequency = 1s
**.cmdenv-log-level = info

ned-path = . 
image-path = ../../images

network = MoST_scenario

##########################################################
#            Simulation parameters                       #
##########################################################
debug-on-errors = false
print-undisposed = false

sim-time-limit = 1000s

**.scalar-recording = true
**.vector-recording = true

**.debug = false
**.coreDebug = false

*.playgroundSizeX = 10000m
*.playgroundSizeY = 10000m
*.playgroundSizeZ = 50m


##########################################################
# Annotation parameters                                  #
##########################################################
*.annotations.draw = true

##########################################################
# Obstacle parameters                                    #
##########################################################
*.obstacles.debug = false
*.obstacles.obstacles = xmldoc("config.xml", "//AnalogueModel[@type='SimpleObstacleShadowing']/obstacles")

##########################################################
#            TraCIScenarioManager parameters             #
##########################################################
*.manager.updateInterval = 1s
*.manager.host = "localhost"
*.manager.port = 9999
*.manager.autoShutdown = true
*.manager.launchConfig = xmldoc("MoST_ped2.launchd.xml")
#*.manager.roiRects = "4486,1875-4856,2180"

*.manager.moduleType = "moped=org.car2x.veins.nodes.Car  motorcycle=org.car2x.veins.nodes.Car slowbicycle=org.car2x.veins.nodes.Car fastbicycle=org.car2x.veins.nodes.Car avgbicycle=org.car2x.veins.nodes.Car *=org.car2x.veins.nodes.Car"
*.manager.moduleName = "moped=Bikenode motorcycle=Bikenode slowbicycle=Bicyclenode  fastbicycle=Bicyclenode avgbicycle=Bicyclenode *=node"
*.manager.moduleDisplayString = "moped='i=veins/node/bike;is=s' motorcycle='i=veins/node/bike;is=s' slowbicycle='i=veins/node/bicycle;is=s' fastbicycle='i=veins/node/bicycle;is=s' avgbicycle='i=veins/node/bicycle;is=s' *='i=veins/node/car;is=vs'"

#*.manager.moduleType = "typePassenger=org.car2x.veins.nodes.Car ped=org.car2x.veins.nodes.Car"
#*.manager.moduleName = "typePassenger=node ped=Pednode"
#*.manager.moduleDisplayString = "typePassenger='i=veins/node/pedestrian;is=vs' ped='i=veins/node/pedestrian;is=vs'"
#
#INFO (TraCIScenarioManagerLaunchd)MoST_scenario.manager: DEFAULT_PEDTYPE
#INFO (TraCIScenarioManagerLaunchd)MoST_scenario.manager: avgbicycle
#INFO (TraCIScenarioManagerLaunchd)MoST_scenario.manager: avgpedestrian
#INFO (TraCIScenarioManagerLaunchd)MoST_scenario.manager: bus
#INFO (TraCIScenarioManagerLaunchd)MoST_scenario.manager: fastbicycle
#INFO (TraCIScenarioManagerLaunchd)MoST_scenario.manager: fastpedestrian
#INFO (TraCIScenarioManagerLaunchd)MoST_scenario.manager: moped
#INFO (TraCIScenarioManagerLaunchd)MoST_scenario.manager: motorcycle
#INFO (TraCIScenarioManagerLaunchd)MoST_scenario.manager: passenger1
#INFO (TraCIScenarioManagerLaunchd)MoST_scenario.manager: passenger2a
#INFO (TraCIScenarioManagerLaunchd)MoST_scenario.manager: passenger2b
#INFO (TraCIScenarioManagerLaunchd)MoST_scenario.manager: passenger3
#INFO (TraCIScenarioManagerLaunchd)MoST_scenario.manager: passenger4
#INFO (TraCIScenarioManagerLaunchd)MoST_scenario.manager: slowbicycle
#INFO (TraCIScenarioManagerLaunchd)MoST_scenario.manager: slowpedestrian
#INFO (TraCIScenarioManagerLaunchd)MoST_scenario.manager: taxi
#INFO (TraCIScenarioManagerLaunchd)MoST_scenario.manager: train
#INFO (TraCIScenarioManagerLaunchd)MoST_scenario.manager: uber
#INFO (TraCIScenarioManagerLaunchd)MoST_scenario.manager: bicycle
#INFO (TraCIScenarioManagerLaunchd)MoST_scenario.manager: on-demand
#INFO (TraCIScenarioManagerLaunchd)MoST_scenario.manager: passenger
#INFO (TraCIScenarioManagerLaunchd)MoST_scenario.manager: pedestrian
#INFO (TraCIScenarioManagerLaunchd)MoST_scenario.manager: ptw

##########################################################
#                       RSU SETTINGS                     #
#                                                        #
#                                                        #
##########################################################
*.rsu[0].mobility.x = 500
*.rsu[0].mobility.y = 500
*.rsu[0].mobility.z = 3

*.rsu[*].applType = "TraCIDemoRSU11p"
*.rsu[*].appl.headerLength = 80 bit
*.rsu[*].appl.sendBeacons = false
*.rsu[*].appl.dataOnSch = false
*.rsu[*].appl.beaconInterval = 0.1s
*.rsu[*].appl.beaconUserPriority = 7
*.rsu[*].appl.dataUserPriority = 5

##########################################################
#            11p specific parameters                     #
#                                                        #
#                    NIC-Settings                        #
##########################################################

*.connectionManager.sendDirect = true #set in true originaly
*.connectionManager.maxInterfDist = 2600m
*.connectionManager.drawMaxIntfDist = false



*.**.nic.mac1609_4.useServiceChannel = false

*.**.nic.mac1609_4.txPower = 300 mW #20mW, en base a TrAD
*.**.nic.mac1609_4.bitrate = 6Mbps
*.**.nic.phy80211p.sensitivity = -110 dBm#-89dBm, en base a TrAD

*.**.nic.phy80211p.useThermalNoise = true
*.**.nic.phy80211p.thermalNoise = -110dBm

*.**.nic.phy80211p.decider = xmldoc("config.xml")
*.**.nic.phy80211p.analogueModels = xmldoc("config.xml")
*.**.nic.phy80211p.usePropagationDelay = true
*.**.nic.phy80211p.collectCollisionStatistics = true

*.**.nic.phy80211p.antenna = xmldoc("antenna.xml", "/root/Antenna[@id='monopole']")

##########################################################
#                    WaveAppLayer                        #
##########################################################
*.node[*].applType = "myWaveAppLayer"
*.node[*].appl.headerLength = 80 bit
*.node[*].appl.sendBeacons = true
*.node[*].appl.dataOnSch = false
*.node[*].appl.beaconInterval = 1s
*.node[*].appl.beaconUserPriority = 5
*.node[*].appl.dataUserPriority = 7

*.Pednode[*].applType = "PedAppLayer"
*.Pednode[*].appl.headerLength = 80 bit
*.Pednode[*].appl.sendBeacons = true
*.Pednode[*].appl.dataOnSch = false
*.Pednode[*].appl.beaconInterval = 1s
*.Pednode[*].appl.beaconUserPriority = 5
*.Pednode[*].appl.dataUserPriority = 7

*.Bicyclenode[*].applType = "PedAppLayer"
*.Bicyclenode[*].appl.headerLength = 80 bit
*.Bicyclenode[*].appl.sendBeacons = true
*.Bicyclenode[*].appl.dataOnSch = false
*.Bicyclenode[*].appl.beaconInterval = 1s
*.Bicyclenode[*].appl.beaconUserPriority = 5
*.Bicyclenode[*].appl.dataUserPriority = 7

*.Bikenode[*].applType = "PedAppLayer"
*.Bikenode[*].appl.headerLength = 80 bit
*.Bikenode[*].appl.sendBeacons = true
*.Bikenode[*].appl.dataOnSch = false
*.Bikenode[*].appl.beaconInterval = 1s
*.Bikenode[*].appl.beaconUserPriority = 5
*.Bikenode[*].appl.dataUserPriority = 7

##########################################################
#                      Mobility                          #
##########################################################
*.node[*].veinsmobilityType.debug = false
*.node[*].veinsmobility.x = 0
*.node[*].veinsmobility.y = 0
*.node[*].veinsmobility.z = 1.895
*.node[*].veinsmobility.accidentCount = 1
*.node[*].veinsmobility.accidentStart = 3s
*.node[*].veinsmobility.accidentDuration = 20s
*.node[*].appl.Accident_start = 3

*.Pednode[*].veinsmobilityType.debug = false
*.Pednode[*].veinsmobility.x = 0
*.Pednode[*].veinsmobility.y = 0
*.Pednode[*].veinsmobility.z = 1.895

*.Bicyclenode[*].veinsmobilityType.debug = false
*.Bicyclenode[*].veinsmobility.x = 0
*.Bicyclenode[*].veinsmobility.y = 0
*.Bicyclenode[*].veinsmobility.z = 1.895

*.Bikenode[*].veinsmobilityType.debug = false
*.Bikenode[*].veinsmobility.x = 0
*.Bikenode[*].veinsmobility.y = 0
*.Bikenode[*].veinsmobility.z = 1.895

###################################################
## All nodes send beacons with r=1Hz,2Hz,5Hz,10Hz #
###################################################
[Config Ped_Crossing-BL]

**.vector-recording = false
cmdenv-express-mode = true

# Service Channel

*.**.nic.mac1609_4.useServiceChannel = true

# Set Scenario 

*.manager.firstStepAt = ${DEN=23500s,28500s,33500s,38500s} # 18500s,43500s} 
*.manager.roiRects = "4735,2149-4935,2349"

#########################
#### Normal Vehicle #####
#########################

*.node[*].appl.Slotted1Enabled = true
*.node[*].appl.Slotted_Ns = 3 #${3 ,2} 
*.node[*].appl.Slotted_R = 300 #40
*.node[*].appl.Slotted_tau = 0.005 #1.45

*.node[*].appl.beaconInterval = ${BL= 1s,0.5s,0.2s,0.1s } # 1Hz, 2Hz, 5Hz, 10Hz
*.node[*].appl.NTL_target =0# ${NTL=0}#,1,2}
*.node[*].appl.aware = false

*.node[*].appl.dataOnSch = false  # Setear en false para realizar diseminación

*.node[*].appl.Send_Per_WSM = false
*.node[*].appl.sendWSA = false 

*.node[*].veinsmobility.accidentCount = 0 #0 #1
*.node[10].veinsmobility.accidentStart =  50000s#120s #95s
*.node[10].veinsmobility.accidentDuration = 5s
*.node[10].appl.Accident_start = 50000#120 #95
*.node[10].appl.MeInAcc = false

###########################
#### Pedestrian Nodes #####
###########################

*.Pednode[*].appl.Slotted1Enabled = true
*.Pednode[*].appl.Slotted_Ns = 3 #${3 ,2} 
*.Pednode[*].appl.Slotted_R = 300 #40
*.Pednode[*].appl.Slotted_tau = 0.005 #1.45

*.Pednode[*].appl.beaconInterval = ${1s,0.5s,0.2s,0.1s !BL} # 1Hz, 2Hz, 5Hz, 10Hz

*.Pednode[*].appl.NTL_target = 0 #${0,1,2 !NTL}
*.Pednode[*].appl.aware = false 

*.Pednode[*].appl.dataOnSch = false  # Setear en false para realizar diseminación

*.Pednode[*].appl.Send_Per_WSM = false
*.Pednode[*].appl.sendWSA = false 

########################
#### Bicycle Nodes #####
########################

*.Bicyclenode[*].appl.Slotted1Enabled = true
*.Bicyclenode[*].appl.Slotted_Ns = 3 #${3 ,2} 
*.Bicyclenode[*].appl.Slotted_R = 300 #40
*.Bicyclenode[*].appl.Slotted_tau = 0.005 #1.45

*.Bicyclenode[*].appl.beaconInterval = ${1s,0.5s,0.2s,0.1s !BL} # 1Hz, 2Hz, 5Hz, 10Hz
*.Bicyclenode[*].appl.NTL_target = 0 #${0,1,2 !NTL}
*.Bicyclenode[*].appl.aware = false 

*.Bicyclenode[*].appl.dataOnSch = false  # Setear en false para realizar diseminación

*.Bicyclenode[*].appl.Send_Per_WSM = false
*.Bicyclenode[*].appl.sendWSA = false 

#####################
#### Bike Nodes #####
#####################

*.Bikenode[*].appl.Slotted1Enabled = true
*.Bikenode[*].appl.Slotted_Ns = 3 #${3 ,2} 
*.Bikenode[*].appl.Slotted_R = 300 #40
*.Bikenode[*].appl.Slotted_tau = 0.005 #1.45

*.Bikenode[*].appl.beaconInterval = ${1s,0.5s,0.2s,0.1s !BL} # 1Hz, 2Hz, 5Hz, 10Hz

*.Bikenode[*].appl.NTL_target = 0 #${0,1,2 !NTL}
*.Bikenode[*].appl.aware = false 

*.Bikenode[*].appl.dataOnSch = false  # Setear en false para realizar diseminación

*.Bikenode[*].appl.Send_Per_WSM = false
*.Bikenode[*].appl.sendWSA = false 


sim-time-limit = ${23510s,28510s,33510s,38510s !DEN} #18510s, ,43510s

repeat=10


###########################################################
## Only VRU OnStreet send beacons with r=1Hz,2Hz,5Hz,10Hz #
###########################################################
[Config Ped_Crossing-OnStreet]

**.vector-recording = false
cmdenv-express-mode = true

# Service Channel

*.**.nic.mac1609_4.useServiceChannel = true

# Set Scenario 

*.manager.firstStepAt = ${DEN=23500s,28500s,33500s,38500s} # 18500s,43500s} 
*.manager.roiRects = "4735,2149-4935,2349"

#########################
#### Normal Vehicle #####
#########################

*.node[*].appl.Slotted1Enabled = true
*.node[*].appl.Slotted_Ns = 3 #${3 ,2} 
*.node[*].appl.Slotted_R = 300 #40
*.node[*].appl.Slotted_tau = 0.005 #1.45

*.node[*].appl.beaconInterval = ${BL= 1s,0.5s,0.2s,0.1s } # 1Hz, 2Hz, 5Hz, 10Hz

*.node[*].appl.NTL_target =0# ${NTL=0}#,1,2}
*.node[*].appl.aware = false

*.node[*].appl.dataOnSch = false  # Setear en false para realizar diseminación

*.node[*].appl.Send_Per_WSM = false
*.node[*].appl.sendWSA = false 

*.node[*].veinsmobility.accidentCount = 0 #0 #1
*.node[10].veinsmobility.accidentStart =  50000s#120s #95s
*.node[10].veinsmobility.accidentDuration = 5s
*.node[10].appl.Accident_start = 50000#120 #95
*.node[10].appl.MeInAcc = false

###########################
#### Pedestrian Nodes #####
###########################

*.Pednode[*].appl.Slotted1Enabled = true
*.Pednode[*].appl.Slotted_Ns = 3 #${3 ,2} 
*.Pednode[*].appl.Slotted_R = 300 #40
*.Pednode[*].appl.Slotted_tau = 0.005 #1.45

*.Pednode[*].appl.beaconInterval = ${1s,0.5s,0.2s,0.1s !BL} # 1Hz, 2Hz, 5Hz, 10Hz

*.Pednode[*].appl.NTL_target = 0 #${0,1,2 !NTL}
*.Pednode[*].appl.aware = false 

*.Pednode[*].appl.dataOnSch = false  # Setear en false para realizar diseminación

*.Pednode[*].appl.Send_Per_WSM = false
*.Pednode[*].appl.sendWSA = false 

*.Pednode[*].appl.OnStreet = true

########################
#### Bicycle Nodes #####
########################

*.Bicyclenode[*].appl.Slotted1Enabled = true
*.Bicyclenode[*].appl.Slotted_Ns = 3 #${3 ,2} 
*.Bicyclenode[*].appl.Slotted_R = 300 #40
*.Bicyclenode[*].appl.Slotted_tau = 0.005 #1.45

*.Bicyclenode[*].appl.beaconInterval = 0.2s # ${1s,0.5s,0.1s !BL} # 1Hz, 2Hz ,10 Hz
*.Bicyclenode[*].appl.NTL_target = 0 #${0,1,2 !NTL}
*.Bicyclenode[*].appl.aware = false 

*.Bicyclenode[*].appl.dataOnSch = false  # Setear en false para realizar diseminación

*.Bicyclenode[*].appl.Send_Per_WSM = false
*.Bicyclenode[*].appl.sendWSA = false 

*.Bicyclenode[*].appl.OnStreet = true

#####################
#### Bike Nodes #####
#####################

*.Bikenode[*].appl.Slotted1Enabled = true
*.Bikenode[*].appl.Slotted_Ns = 3 #${3 ,2} 
*.Bikenode[*].appl.Slotted_R = 300 #40
*.Bikenode[*].appl.Slotted_tau = 0.005 #1.45

*.Bikenode[*].appl.beaconInterval = 0.2s #${1s,0.5s,0.1s !BL} #0.1s#${0.1s,0.5s}

*.Bikenode[*].appl.NTL_target = 0 #${0,1,2 !NTL}
*.Bikenode[*].appl.aware = false 

*.Bikenode[*].appl.dataOnSch = false  # Setear en false para realizar diseminación

*.Bikenode[*].appl.Send_Per_WSM = false
*.Bikenode[*].appl.sendWSA = false 

*.Bikenode[*].appl.OnStreet = true


sim-time-limit = ${23510s,28510s,33510s,38510s !DEN} #18510s, ,43510s

repeat=10


###############################################################
## Only VRU whit Speed>0 send beacons with r=1Hz,2Hz,5Hz,10Hz #
###############################################################
[Config Ped_Crossing-MovinPed]

**.vector-recording = false
cmdenv-express-mode = true

# Service Channel

*.**.nic.mac1609_4.useServiceChannel = true

# Set Scenario 

*.manager.firstStepAt = ${DEN=23500s,28500s,33500s,38500s} # 18500s,43500s} 
*.manager.roiRects = "4735,2149-4935,2349"

#########################
#### Normal Vehicle #####
#########################

*.node[*].appl.Slotted1Enabled = true
*.node[*].appl.Slotted_Ns = 3 #${3 ,2} 
*.node[*].appl.Slotted_R = 300 #40
*.node[*].appl.Slotted_tau = 0.005 #1.45

*.node[*].appl.beaconInterval = ${BL= 1s,0.5s,0.2s,0.1s } # 1Hz, 2Hz, 5Hz, 10Hz

*.node[*].appl.NTL_target =0# ${NTL=0}#,1,2}
*.node[*].appl.aware = false

*.node[*].appl.dataOnSch = false  # Setear en false para realizar diseminación

*.node[*].appl.Send_Per_WSM = false
*.node[*].appl.sendWSA = false 

*.node[*].veinsmobility.accidentCount = 0 #0 #1
*.node[10].veinsmobility.accidentStart =  50000s#120s #95s
*.node[10].veinsmobility.accidentDuration = 5s
*.node[10].appl.Accident_start = 50000#120 #95
*.node[10].appl.MeInAcc = false

###########################
#### Pedestrian Nodes #####
###########################

*.Pednode[*].appl.Slotted1Enabled = true
*.Pednode[*].appl.Slotted_Ns = 3 #${3 ,2} 
*.Pednode[*].appl.Slotted_R = 300 #40
*.Pednode[*].appl.Slotted_tau = 0.005 #1.45

*.Pednode[*].appl.beaconInterval = ${1s,0.5s,0.2s,0.1s !BL} # 1Hz, 2Hz, 5Hz, 10Hz

*.Pednode[*].appl.NTL_target = 0 #${0,1,2 !NTL}
*.Pednode[*].appl.aware = false 

*.Pednode[*].appl.dataOnSch = false  # Setear en false para realizar diseminación

*.Pednode[*].appl.Send_Per_WSM = false
*.Pednode[*].appl.sendWSA = false 

*.Pednode[*].appl.MovinPed = true

########################
#### Bicycle Nodes #####
########################

*.Bicyclenode[*].appl.Slotted1Enabled = true
*.Bicyclenode[*].appl.Slotted_Ns = 3 #${3 ,2} 
*.Bicyclenode[*].appl.Slotted_R = 300 #40
*.Bicyclenode[*].appl.Slotted_tau = 0.005 #1.45

*.Bicyclenode[*].appl.beaconInterval = 0.2s # ${1s,0.5s,0.1s !BL} # 1Hz, 2Hz ,10 Hz
*.Bicyclenode[*].appl.NTL_target = 0 #${0,1,2 !NTL}
*.Bicyclenode[*].appl.aware = false 

*.Bicyclenode[*].appl.dataOnSch = false  # Setear en false para realizar diseminación

*.Bicyclenode[*].appl.Send_Per_WSM = false
*.Bicyclenode[*].appl.sendWSA = false 

*.Bicyclenode[*].appl.MovinPed = true

#####################
#### Bike Nodes #####
#####################

*.Bikenode[*].appl.Slotted1Enabled = true
*.Bikenode[*].appl.Slotted_Ns = 3 #${3 ,2} 
*.Bikenode[*].appl.Slotted_R = 300 #40
*.Bikenode[*].appl.Slotted_tau = 0.005 #1.45

*.Bikenode[*].appl.beaconInterval = 0.2s #${1s,0.5s,0.1s !BL} #0.1s#${0.1s,0.5s}

*.Bikenode[*].appl.NTL_target = 0 #${0,1,2 !NTL}
*.Bikenode[*].appl.aware = false 

*.Bikenode[*].appl.dataOnSch = false  # Setear en false para realizar diseminación

*.Bikenode[*].appl.Send_Per_WSM = false
*.Bikenode[*].appl.sendWSA = false 

*.Bikenode[*].appl.MovinPed = true


sim-time-limit = ${23510s,28510s,33510s,38510s !DEN} #18510s, ,43510s

repeat=10

########################################################
## VRU whit Speed>0 send beacons with r=5Hz else r=2Hz #
########################################################

[Config Ped_Crossing-MultipleTx]

**.vector-recording = false
cmdenv-express-mode = true

# Service Channel

*.**.nic.mac1609_4.useServiceChannel = true

# Set Scenario 

*.manager.firstStepAt = ${DEN=23500s,28500s,33500s,38500s} # 18500s,43500s} 
*.manager.roiRects = "4735,2149-4935,2349"

#########################
#### Normal Vehicle #####
#########################

*.node[*].appl.Slotted1Enabled = true
*.node[*].appl.Slotted_Ns = 3 #${3 ,2} 
*.node[*].appl.Slotted_R = 300 #40
*.node[*].appl.Slotted_tau = 0.005 #1.45

*.node[*].appl.beaconInterval = 1s 

*.node[*].appl.NTL_target =0# ${NTL=0}#,1,2}
*.node[*].appl.aware = false

*.node[*].appl.dataOnSch = false  # Setear en false para realizar diseminación

*.node[*].appl.Send_Per_WSM = false
*.node[*].appl.sendWSA = false 

*.node[*].veinsmobility.accidentCount = 0 
*.node[10].veinsmobility.accidentStart =  50000s#120s #95s
*.node[10].veinsmobility.accidentDuration = 5s
*.node[10].appl.Accident_start = 50000#120 #95
*.node[10].appl.MeInAcc = false

###########################
#### Pedestrian Nodes #####
###########################

*.Pednode[*].appl.Slotted1Enabled = true
*.Pednode[*].appl.Slotted_Ns = 3 #${3 ,2} 
*.Pednode[*].appl.Slotted_R = 300 #40
*.Pednode[*].appl.Slotted_tau = 0.005 #1.45

*.Pednode[*].appl.beaconInterval = 1s #${1s,0.5s,0.1s !BL}

*.Pednode[*].appl.NTL_target = 0 #${0,1,2 !NTL}
*.Pednode[*].appl.aware = false 

*.Pednode[*].appl.dataOnSch = false  # Setear en false para realizar diseminación

*.Pednode[*].appl.Send_Per_WSM = false
*.Pednode[*].appl.sendWSA = false 

*.Pednode[*].appl.MultipleTx = true

########################
#### Bicycle Nodes #####
########################

*.Bicyclenode[*].appl.Slotted1Enabled = true
*.Bicyclenode[*].appl.Slotted_Ns = 3 #${3 ,2} 
*.Bicyclenode[*].appl.Slotted_R = 300 #40
*.Bicyclenode[*].appl.Slotted_tau = 0.005 #1.45

*.Bicyclenode[*].appl.beaconInterval = 1s 
*.Bicyclenode[*].appl.NTL_target = 0 
*.Bicyclenode[*].appl.aware = false 

*.Bicyclenode[*].appl.dataOnSch = false  # Setear en false para realizar diseminación

*.Bicyclenode[*].appl.Send_Per_WSM = false
*.Bicyclenode[*].appl.sendWSA = false 
*.Bicyclenode[*].appl.MultipleTx = true

#####################
#### Bike Nodes #####
#####################

*.Bikenode[*].appl.Slotted1Enabled = true
*.Bikenode[*].appl.Slotted_Ns = 3 #${3 ,2} 
*.Bikenode[*].appl.Slotted_R = 300 #40
*.Bikenode[*].appl.Slotted_tau = 0.005 #1.45

*.Bikenode[*].appl.beaconInterval = 0.2s #${1s,0.5s,0.1s !BL} #0.1s#${0.1s,0.5s}

*.Bikenode[*].appl.NTL_target = 0 #${0,1,2 !NTL}
*.Bikenode[*].appl.aware = false 

*.Bikenode[*].appl.dataOnSch = false  # Setear en false para realizar diseminación

*.Bikenode[*].appl.Send_Per_WSM = false
*.Bikenode[*].appl.sendWSA = false 
*.Bikenode[*].appl.MultipleTx = true


sim-time-limit = ${23510s,28510s,33510s,38510s !DEN} #18510s, ,43510s

repeat=10
