<?xml version="1.0"?>
<routes>
   <vType id="typePassenger" accel="2.6" decel="4.5" sigma="0.5" length="2.5" minGap="1" maxSpeed="19" guiShape="passenger"/>
   <vType id="typeBus" accel="0.8" decel="4.5" sigma="0.5" length="10" minGap="3" maxSpeed="19" guiShape="bus" vClass="bus"/>

  <route id="route0" edges="223300795#0 223300795#4 223300795#5 223300795#6 121815695#0 121815695#1 121815695#2-AddedOnRampEdge 121815695#2 121815695#3 121815695#4"/>
      
  <route id="route1" edges="446594494#0 446594494#2 121815662#0 121815662#1 121815662#2 407593363#0 407593363#1"/>

  <route id="route2" edges="448736027#0 448736027#2 448736027#3 223300795#5 23321898#0 23321898#2"/>

  <route id="route3" edges="449284320#0 449284320#1 449284320#2 449284320#3 121815661#0 121815661#1"/>

  <route id="route4" edges="11490172#0 11490172#2 447281176 38619574 447281177#0 447281177#1 447281177#2 447281177#3"/>

  <route id="route5" edges="446594494#0 7981319#0 7981319#2"/>

  <route id="route6" edges="23321897#0 23321897#1 23321897#2 23321897#3 449284320#1 20891186#0 20891186#1 20891186#2"/>

  <route id="route7" edges="11490172#0 11490172#2 39334084 448533599#0 448533599#1 448533599#2 448533599#3 448533599#4 448533599#5"/>

  <route id="routei0" edges="223300795#4 223300795#5 223300795#6 121815695#0 121815695#1 121815695#2-AddedOnRampEdge 121815695#2 121815695#3 121815695#4"/>
      
  <route id="routei1" edges="446594494#2 121815662#0 121815662#1 121815662#2 407593363#0 407593363#1"/>

  <route id="routei2" edges="448736027#2 448736027#3 223300795#5 23321898#0 23321898#2"/>

  <route id="routei3" edges="449284320#1 449284320#2 449284320#3 121815661#0 121815661#1"/>

  <route id="routei4" edges="11490172#2 447281176 38619574 447281177#0 447281177#1 447281177#2 447281177#3"/>

  <route id="routei5" edges="223300795#5 223300795#6 121815695#0 121815695#1 121815695#2-AddedOnRampEdge 121815695#2 121815695#3 121815695#4"/>
      
  <route id="routei6" edges="121815662#1 121815662#2 407593363#0 407593363#1"/>

  <route id="routei7" edges="223300795#5 23321898#0 23321898#2"/>

  <route id="routei8" edges="449284320#3 121815661#0 121815661#1"/>

  <route id="routei9" edges="38619574 447281177#0 447281177#1 447281177#2 447281177#3"/>

  <route id="routei10" edges="223300795#6 121815695#0 121815695#1 121815695#2-AddedOnRampEdge 121815695#2 121815695#3 121815695#4"/>
      
  <route id="routei11" edges="121815662#2 407593363#0 407593363#1"/>

  <route id="routei12" edges="23321898#0 23321898#2"/>

  <route id="routei13" edges="121815661#0 121815661#1"/>

  <route id="routei14" edges="447281177#0 447281177#1 447281177#2 447281177#3"/>

  <route id="routei15" edges="121815695#0 121815695#1 121815695#2-AddedOnRampEdge 121815695#2 121815695#3 121815695#4"/>

  <route id="routei16" edges="121815695#1 121815695#2-AddedOnRampEdge 121815695#2 121815695#3 121815695#4"/>

  <route id="routei17" edges="121815695#2-AddedOnRampEdge 121815695#2 121815695#3 121815695#4"/>
  
  <route id="routei18" edges="121815695#2 121815695#3 121815695#4"/>
    <vehicle id="0" type="typePassenger" route="route1" depart="0" departPos="random_free"/>
    <vehicle id="1" type="typeBus" route="route4" depart="0" departPos="random_free"/>
    <vehicle id="2" type="typePassenger" route="route3" depart="0" departPos="random_free"/>
    <vehicle id="3" type="typePassenger" route="route1" depart="0" departPos="random_free"/>
    <vehicle id="4" type="typePassenger" route="route2" depart="0" departPos="random_free"/>
    <vehicle id="5" type="typePassenger" route="route3" depart="0" departPos="random_free"/>
    <vehicle id="6" type="typePassenger" route="route2" depart="0" departPos="random_free"/>
    <vehicle id="7" type="typeBus" route="route0" depart="0" departPos="random_free"/>
    <vehicle id="8" type="typePassenger" route="route0" depart="0" departPos="random_free"/>
    <vehicle id="9" type="typePassenger" route="route3" depart="0" departPos="random_free"/>
    <vehicle id="10" type="typeBus" route="route3" depart="0" departPos="random_free"/>
    <vehicle id="11" type="typeBus" route="route4" depart="0" departPos="random_free"/>
    <vehicle id="12" type="typePassenger" route="route1" depart="0" departPos="random_free"/>
    <vehicle id="13" type="typePassenger" route="route3" depart="0" departPos="random_free"/>
    <vehicle id="14" type="typeBus" route="route3" depart="0" departPos="random_free"/>
    <vehicle id="15" type="typeBus" route="route4" depart="0" departPos="random_free"/>
    <vehicle id="16" type="typePassenger" route="route4" depart="0" departPos="random_free"/>
    <vehicle id="17" type="typeBus" route="route1" depart="0" departPos="random_free"/>
    <vehicle id="18" type="typePassenger" route="route3" depart="0" departPos="random_free"/>
    <vehicle id="19" type="typeBus" route="route4" depart="0" departPos="random_free"/>
    <vehicle id="20" type="typePassenger" route="route1" depart="0" departPos="random_free"/>
    <vehicle id="21" type="typeBus" route="route3" depart="0" departPos="random_free"/>
    <vehicle id="22" type="typePassenger" route="route3" depart="0" departPos="random_free"/>
    <vehicle id="23" type="typePassenger" route="route1" depart="0" departPos="random_free"/>
    <vehicle id="24" type="typeBus" route="route0" depart="0" departPos="random_free"/>
    <vehicle id="25" type="typePassenger" route="route3" depart="0" departPos="random_free"/>
    <vehicle id="26" type="typePassenger" route="route3" depart="0" departPos="random_free"/>
    <vehicle id="27" type="typePassenger" route="route4" depart="0" departPos="random_free"/>
    <vehicle id="28" type="typePassenger" route="route1" depart="0" departPos="random_free"/>
    <vehicle id="29" type="typeBus" route="route0" depart="0" departPos="random_free"/>
    <vehicle id="30" type="typeBus" route="route4" depart="0" departPos="random_free"/>
    <vehicle id="31" type="typePassenger" route="route3" depart="0" departPos="random_free"/>
    <vehicle id="32" type="typeBus" route="route3" depart="0" departPos="random_free"/>
    <vehicle id="33" type="typeBus" route="route4" depart="0" departPos="random_free"/>
    <vehicle id="34" type="typePassenger" route="route3" depart="0" departPos="random_free"/>
    <vehicle id="35" type="typePassenger" route="route2" depart="0" departPos="random_free"/>
    <vehicle id="36" type="typePassenger" route="route4" depart="0" departPos="random_free"/>
    <vehicle id="37" type="typeBus" route="route2" depart="0" departPos="random_free"/>
    <vehicle id="38" type="typePassenger" route="route3" depart="0" departPos="random_free"/>
    <vehicle id="39" type="typePassenger" route="route2" depart="0" departPos="random_free"/>
    <vehicle id="40" type="typePassenger" route="route1" depart="0" departPos="random_free"/>
    <vehicle id="41" type="typeBus" route="route3" depart="0" departPos="random_free"/>
    <vehicle id="42" type="typePassenger" route="route4" depart="0" departPos="random_free"/>
    <vehicle id="43" type="typePassenger" route="route4" depart="0" departPos="random_free"/>
    <vehicle id="44" type="typePassenger" route="route4" depart="0" departPos="random_free"/>
    <vehicle id="45" type="typePassenger" route="route3" depart="0" departPos="random_free"/>
    <vehicle id="46" type="typeBus" route="route0" depart="0" departPos="random_free"/>
    <vehicle id="47" type="typeBus" route="route0" depart="0" departPos="random_free"/>
    <vehicle id="48" type="typePassenger" route="route0" depart="0" departPos="random_free"/>
    <vehicle id="49" type="typeBus" route="route2" depart="0" departPos="random_free"/>
    <vehicle id="50" type="typeBus" route="route1" depart="0" departPos="random_free"/>
    <vehicle id="51" type="typeBus" route="route3" depart="0" departPos="random_free"/>
    <vehicle id="52" type="typeBus" route="route4" depart="0" departPos="random_free"/>
    <vehicle id="53" type="typePassenger" route="route3" depart="0" departPos="random_free"/>
    <vehicle id="54" type="typePassenger" route="route2" depart="0" departPos="random_free"/>
    <vehicle id="55" type="typePassenger" route="route4" depart="0" departPos="random_free"/>
    <vehicle id="56" type="typePassenger" route="route0" depart="0" departPos="random_free"/>
    <vehicle id="57" type="typePassenger" route="route4" depart="0" departPos="random_free"/>
    <vehicle id="58" type="typePassenger" route="route2" depart="0" departPos="random_free"/>
    <vehicle id="59" type="typePassenger" route="route0" depart="0" departPos="random_free"/>
    <vehicle id="60" type="typePassenger" route="route3" depart="0" departPos="random_free"/>
    <vehicle id="61" type="typeBus" route="route2" depart="0" departPos="random_free"/>
    <vehicle id="62" type="typePassenger" route="route1" depart="0" departPos="random_free"/>
    <vehicle id="63" type="typePassenger" route="route4" depart="0" departPos="random_free"/>
    <vehicle id="64" type="typePassenger" route="route1" depart="0" departPos="random_free"/>
    <vehicle id="65" type="typeBus" route="route4" depart="0" departPos="random_free"/>
    <vehicle id="66" type="typePassenger" route="route4" depart="0" departPos="random_free"/>
    <vehicle id="67" type="typePassenger" route="route1" depart="0" departPos="random_free"/>
    <vehicle id="68" type="typePassenger" route="route1" depart="0" departPos="random_free"/>
    <vehicle id="69" type="typePassenger" route="route3" depart="0" departPos="random_free"/>
    <vehicle id="70" type="typeBus" route="route2" depart="0" departPos="random_free"/>
    <vehicle id="71" type="typePassenger" route="route1" depart="0" departPos="random_free"/>
    <vehicle id="72" type="typeBus" route="route2" depart="0" departPos="random_free"/>
    <vehicle id="73" type="typeBus" route="route2" depart="0" departPos="random_free"/>
    <vehicle id="74" type="typePassenger" route="route4" depart="0" departPos="random_free"/>
    <vehicle id="75" type="typeBus" route="route4" depart="0" departPos="random_free"/>
    <vehicle id="76" type="typePassenger" route="route3" depart="0" departPos="random_free"/>
    <vehicle id="77" type="typeBus" route="route3" depart="0" departPos="random_free"/>
    <vehicle id="78" type="typeBus" route="route4" depart="0" departPos="random_free"/>
    <vehicle id="79" type="typePassenger" route="route1" depart="0" departPos="random_free"/>
    <vehicle id="80" type="typeBus" route="route4" depart="0" departPos="random_free"/>
    <vehicle id="81" type="typeBus" route="route4" depart="0" departPos="random_free"/>
    <vehicle id="82" type="typePassenger" route="route0" depart="0" departPos="random_free"/>
    <vehicle id="83" type="typePassenger" route="route2" depart="0" departPos="random_free"/>
    <vehicle id="84" type="typeBus" route="route4" depart="0" departPos="random_free"/>
    <vehicle id="85" type="typePassenger" route="route0" depart="0" departPos="random_free"/>
    <vehicle id="86" type="typePassenger" route="route3" depart="0" departPos="random_free"/>
    <vehicle id="87" type="typePassenger" route="route0" depart="0" departPos="random_free"/>
    <vehicle id="88" type="typePassenger" route="route2" depart="0" departPos="random_free"/>
    <vehicle id="89" type="typePassenger" route="route2" depart="0" departPos="random_free"/>
    <vehicle id="90" type="typePassenger" route="route3" depart="0" departPos="random_free"/>
    <vehicle id="91" type="typeBus" route="route0" depart="0" departPos="random_free"/>
    <vehicle id="92" type="typePassenger" route="route3" depart="0" departPos="random_free"/>
    <vehicle id="93" type="typePassenger" route="route4" depart="0" departPos="random_free"/>
    <vehicle id="94" type="typePassenger" route="route3" depart="0" departPos="random_free"/>
    <vehicle id="95" type="typeBus" route="route1" depart="0" departPos="random_free"/>
    <vehicle id="96" type="typeBus" route="route4" depart="0" departPos="random_free"/>
    <vehicle id="97" type="typePassenger" route="route3" depart="0" departPos="random_free"/>
    <vehicle id="98" type="typePassenger" route="route1" depart="0" departPos="random_free"/>
    <vehicle id="99" type="typePassenger" route="route0" depart="0" departPos="random_free"/>
    <vehicle id="100" type="typePassenger" route="route1" depart="0" departPos="random_free"/>
    <vehicle id="101" type="typePassenger" route="route0" depart="0" departPos="random_free"/>
    <vehicle id="102" type="typeBus" route="route0" depart="0" departPos="random_free"/>
    <vehicle id="103" type="typePassenger" route="route1" depart="0" departPos="random_free"/>
    <vehicle id="104" type="typePassenger" route="route1" depart="0" departPos="random_free"/>
    <vehicle id="105" type="typePassenger" route="route0" depart="0" departPos="random_free"/>
    <vehicle id="106" type="typePassenger" route="route4" depart="0" departPos="random_free"/>
    <vehicle id="107" type="typePassenger" route="route3" depart="0" departPos="random_free"/>
    <vehicle id="108" type="typePassenger" route="route4" depart="0" departPos="random_free"/>
    <vehicle id="109" type="typePassenger" route="route1" depart="0" departPos="random_free"/>
    <vehicle id="110" type="typePassenger" route="route3" depart="0" departPos="random_free"/>
    <vehicle id="111" type="typePassenger" route="route0" depart="0" departPos="random_free"/>
    <vehicle id="112" type="typePassenger" route="route2" depart="0" departPos="random_free"/>
    <vehicle id="113" type="typePassenger" route="route4" depart="0" departPos="random_free"/>
    <vehicle id="114" type="typePassenger" route="route1" depart="0" departPos="random_free"/>
    <vehicle id="115" type="typePassenger" route="route2" depart="0" departPos="random_free"/>
    <vehicle id="116" type="typePassenger" route="route3" depart="0" departPos="random_free"/>
    <vehicle id="117" type="typePassenger" route="route1" depart="0" departPos="random_free"/>
    <vehicle id="118" type="typePassenger" route="route3" depart="0" departPos="random_free"/>
    <vehicle id="119" type="typePassenger" route="route0" depart="0" departPos="random_free"/>
    <vehicle id="120" type="typePassenger" route="route1" depart="0" departPos="random_free"/>
    <vehicle id="121" type="typePassenger" route="route4" depart="0" departPos="random_free"/>
    <vehicle id="122" type="typePassenger" route="route0" depart="0" departPos="random_free"/>
    <vehicle id="123" type="typePassenger" route="route4" depart="0" departPos="random_free"/>
    <vehicle id="124" type="typePassenger" route="route2" depart="0" departPos="random_free"/>
    <vehicle id="125" type="typePassenger" route="route3" depart="0" departPos="random_free"/>
    <vehicle id="126" type="typeBus" route="route3" depart="0" departPos="random_free"/>
    <vehicle id="127" type="typeBus" route="route4" depart="0" departPos="random_free"/>
    <vehicle id="128" type="typePassenger" route="route4" depart="0" departPos="random_free"/>
    <vehicle id="129" type="typePassenger" route="route3" depart="0" departPos="random_free"/>
    <vehicle id="130" type="typeBus" route="route1" depart="0" departPos="random_free"/>
    <vehicle id="131" type="typePassenger" route="route1" depart="0" departPos="random_free"/>
    <vehicle id="132" type="typeBus" route="route2" depart="0" departPos="random_free"/>
    <vehicle id="133" type="typeBus" route="route2" depart="0" departPos="random_free"/>
    <vehicle id="134" type="typePassenger" route="route4" depart="0" departPos="random_free"/>
    <vehicle id="135" type="typePassenger" route="route4" depart="0" departPos="random_free"/>
    <vehicle id="136" type="typePassenger" route="route3" depart="0" departPos="random_free"/>
    <vehicle id="137" type="typePassenger" route="route0" depart="0" departPos="random_free"/>
    <vehicle id="138" type="typePassenger" route="route4" depart="0" departPos="random_free"/>
    <vehicle id="139" type="typePassenger" route="route3" depart="0" departPos="random_free"/>
    <vehicle id="140" type="typePassenger" route="route4" depart="0" departPos="random_free"/>
    <vehicle id="141" type="typePassenger" route="route3" depart="0" departPos="random_free"/>
    <vehicle id="142" type="typeBus" route="route4" depart="0" departPos="random_free"/>
    <vehicle id="143" type="typePassenger" route="route2" depart="0" departPos="random_free"/>
    <vehicle id="144" type="typePassenger" route="route1" depart="0" departPos="random_free"/>
    <vehicle id="145" type="typeBus" route="route3" depart="0" departPos="random_free"/>
    <vehicle id="146" type="typePassenger" route="route0" depart="0" departPos="random_free"/>
    <vehicle id="147" type="typePassenger" route="route4" depart="0" departPos="random_free"/>
    <vehicle id="148" type="typePassenger" route="route2" depart="0" departPos="random_free"/>
    <vehicle id="149" type="typePassenger" route="route2" depart="0" departPos="random_free"/>
    <vehicle id="150" type="typePassenger" route="route4" depart="0" departPos="random_free"/>
    <vehicle id="151" type="typePassenger" route="route4" depart="0" departPos="random_free"/>
    <vehicle id="152" type="typePassenger" route="route2" depart="0" departPos="random_free"/>
    <vehicle id="153" type="typePassenger" route="route1" depart="0" departPos="random_free"/>
    <vehicle id="154" type="typeBus" route="route4" depart="0" departPos="random_free"/>
    <vehicle id="155" type="typePassenger" route="route1" depart="0" departPos="random_free"/>
    <vehicle id="156" type="typePassenger" route="route0" depart="0" departPos="random_free"/>
    <vehicle id="157" type="typePassenger" route="route0" depart="0" departPos="random_free"/>
    <vehicle id="158" type="typePassenger" route="route0" depart="0" departPos="random_free"/>
    <vehicle id="159" type="typePassenger" route="route1" depart="0" departPos="random_free"/>
    <vehicle id="160" type="typePassenger" route="route4" depart="0" departPos="random_free"/>
    <vehicle id="161" type="typePassenger" route="route0" depart="0" departPos="random_free"/>
    <vehicle id="162" type="typePassenger" route="route0" depart="0" departPos="random_free"/>
    <vehicle id="163" type="typePassenger" route="route0" depart="0" departPos="random_free"/>
    <vehicle id="164" type="typePassenger" route="route0" depart="0" departPos="random_free"/>
    <vehicle id="165" type="typePassenger" route="route4" depart="0" departPos="random_free"/>
    <vehicle id="166" type="typePassenger" route="route3" depart="0" departPos="random_free"/>
    <vehicle id="167" type="typeBus" route="route4" depart="0" departPos="random_free"/>
    <vehicle id="168" type="typePassenger" route="route4" depart="0" departPos="random_free"/>
    <vehicle id="169" type="typeBus" route="route1" depart="0" departPos="random_free"/>
    <vehicle id="170" type="typePassenger" route="route3" depart="0" departPos="random_free"/>
    <vehicle id="171" type="typeBus" route="route2" depart="0" departPos="random_free"/>
    <vehicle id="172" type="typePassenger" route="route1" depart="0" departPos="random_free"/>
    <vehicle id="173" type="typeBus" route="route0" depart="0" departPos="random_free"/>
    <vehicle id="174" type="typePassenger" route="route2" depart="0" departPos="random_free"/>
    <vehicle id="175" type="typePassenger" route="route2" depart="0" departPos="random_free"/>
    <vehicle id="176" type="typePassenger" route="route1" depart="0" departPos="random_free"/>
    <vehicle id="177" type="typePassenger" route="route0" depart="0" departPos="random_free"/>
    <vehicle id="178" type="typeBus" route="route2" depart="0" departPos="random_free"/>
    <vehicle id="179" type="typePassenger" route="route2" depart="0" departPos="random_free"/>
    <vehicle id="180" type="typePassenger" route="route4" depart="0" departPos="random_free"/>
    <vehicle id="181" type="typePassenger" route="route4" depart="0" departPos="random_free"/>
    <vehicle id="182" type="typeBus" route="route1" depart="0" departPos="random_free"/>
    <vehicle id="183" type="typeBus" route="route1" depart="0" departPos="random_free"/>
    <vehicle id="184" type="typePassenger" route="route1" depart="0" departPos="random_free"/>
    <vehicle id="185" type="typePassenger" route="route4" depart="0" departPos="random_free"/>
    <vehicle id="186" type="typePassenger" route="route4" depart="0" departPos="random_free"/>
    <vehicle id="187" type="typePassenger" route="route3" depart="0" departPos="random_free"/>
    <vehicle id="188" type="typePassenger" route="route2" depart="0" departPos="random_free"/>
    <vehicle id="189" type="typePassenger" route="route2" depart="0" departPos="random_free"/>
    <vehicle id="190" type="typePassenger" route="route1" depart="0" departPos="random_free"/>
    <vehicle id="191" type="typeBus" route="route2" depart="0" departPos="random_free"/>
    <vehicle id="192" type="typePassenger" route="route0" depart="0" departPos="random_free"/>
    <vehicle id="193" type="typePassenger" route="route0" depart="0" departPos="random_free"/>
    <vehicle id="194" type="typePassenger" route="route1" depart="0" departPos="random_free"/>
    <vehicle id="195" type="typePassenger" route="route4" depart="0" departPos="random_free"/>
    <vehicle id="196" type="typePassenger" route="route1" depart="0" departPos="random_free"/>
    <vehicle id="197" type="typePassenger" route="route4" depart="0" departPos="random_free"/>
    <vehicle id="198" type="typePassenger" route="route1" depart="0" departPos="random_free"/>
    <vehicle id="199" type="typePassenger" route="route4" depart="0" departPos="random_free"/>
    <vehicle id="200" type="typePassenger" route="route4" depart="0" departPos="random_free"/>
    <vehicle id="201" type="typeBus" route="route3" depart="0" departPos="random_free"/>
    <vehicle id="202" type="typePassenger" route="route0" depart="0" departPos="random_free"/>
    <vehicle id="203" type="typePassenger" route="route4" depart="0" departPos="random_free"/>
    <vehicle id="204" type="typePassenger" route="route0" depart="0" departPos="random_free"/>
    <vehicle id="205" type="typePassenger" route="route2" depart="0" departPos="random_free"/>
    <vehicle id="206" type="typePassenger" route="route2" depart="0" departPos="random_free"/>
    <vehicle id="207" type="typePassenger" route="route3" depart="0" departPos="random_free"/>
    <vehicle id="208" type="typePassenger" route="route2" depart="0" departPos="random_free"/>
    <vehicle id="209" type="typePassenger" route="route1" depart="0" departPos="random_free"/>
    <vehicle id="210" type="typePassenger" route="route3" depart="0" departPos="random_free"/>
    <vehicle id="211" type="typeBus" route="route0" depart="0" departPos="random_free"/>
    <vehicle id="212" type="typeBus" route="route3" depart="0" departPos="random_free"/>
    <vehicle id="213" type="typePassenger" route="route3" depart="0" departPos="random_free"/>
    <vehicle id="214" type="typePassenger" route="route0" depart="0" departPos="random_free"/>
    <vehicle id="215" type="typePassenger" route="route2" depart="0" departPos="random_free"/>
    <vehicle id="216" type="typePassenger" route="route1" depart="0" departPos="random_free"/>
    <vehicle id="217" type="typePassenger" route="route1" depart="0" departPos="random_free"/>
    <vehicle id="218" type="typeBus" route="route2" depart="0" departPos="random_free"/>
    <vehicle id="219" type="typeBus" route="route2" depart="0" departPos="random_free"/>
    <vehicle id="220" type="typePassenger" route="route4" depart="0" departPos="random_free"/>
    <vehicle id="221" type="typePassenger" route="route2" depart="0" departPos="random_free"/>
    <vehicle id="222" type="typeBus" route="route3" depart="0" departPos="random_free"/>
    <vehicle id="223" type="typePassenger" route="route3" depart="0" departPos="random_free"/>
    <vehicle id="224" type="typePassenger" route="route2" depart="0" departPos="random_free"/>
    <vehicle id="225" type="typePassenger" route="route2" depart="0" departPos="random_free"/>
    <vehicle id="226" type="typeBus" route="route3" depart="0" departPos="random_free"/>
    <vehicle id="227" type="typeBus" route="route3" depart="0" departPos="random_free"/>
    <vehicle id="228" type="typePassenger" route="route3" depart="0" departPos="random_free"/>
    <vehicle id="229" type="typeBus" route="route3" depart="0" departPos="random_free"/>
    <vehicle id="230" type="typePassenger" route="route4" depart="0" departPos="random_free"/>
    <vehicle id="231" type="typePassenger" route="route0" depart="0" departPos="random_free"/>
    <vehicle id="232" type="typePassenger" route="route0" depart="0" departPos="random_free"/>
    <vehicle id="233" type="typePassenger" route="route0" depart="0" departPos="random_free"/>
    <vehicle id="234" type="typeBus" route="route2" depart="0" departPos="random_free"/>
    <vehicle id="235" type="typeBus" route="route4" depart="0" departPos="random_free"/>
    <vehicle id="236" type="typePassenger" route="route1" depart="0" departPos="random_free"/>
    <vehicle id="237" type="typePassenger" route="route1" depart="0" departPos="random_free"/>
    <vehicle id="238" type="typePassenger" route="route0" depart="0" departPos="random_free"/>
    <vehicle id="239" type="typePassenger" route="route2" depart="0" departPos="random_free"/>
    <vehicle id="240" type="typeBus" route="route2" depart="0" departPos="random_free"/>
    <vehicle id="241" type="typeBus" route="route0" depart="0" departPos="random_free"/>
    <vehicle id="242" type="typePassenger" route="route2" depart="0" departPos="random_free"/>
    <vehicle id="243" type="typePassenger" route="route2" depart="0" departPos="random_free"/>
    <vehicle id="244" type="typePassenger" route="route1" depart="0" departPos="random_free"/>
    <vehicle id="245" type="typeBus" route="route4" depart="0" departPos="random_free"/>
    <vehicle id="246" type="typePassenger" route="route1" depart="0" departPos="random_free"/>
    <vehicle id="247" type="typePassenger" route="route3" depart="0" departPos="random_free"/>
    <vehicle id="248" type="typePassenger" route="route2" depart="0" departPos="random_free"/>
    <vehicle id="249" type="typePassenger" route="route4" depart="0" departPos="random_free"/>
    <vehicle id="250" type="typePassenger" route="route0" depart="0" departPos="random_free"/>
    <vehicle id="251" type="typePassenger" route="route3" depart="0" departPos="random_free"/>
    <vehicle id="252" type="typePassenger" route="route2" depart="0" departPos="random_free"/>
    <vehicle id="253" type="typePassenger" route="route0" depart="0" departPos="random_free"/>
    <vehicle id="254" type="typeBus" route="route1" depart="0" departPos="random_free"/>
    <vehicle id="255" type="typePassenger" route="route1" depart="0" departPos="random_free"/>
    <vehicle id="256" type="typePassenger" route="route3" depart="0" departPos="random_free"/>
    <vehicle id="257" type="typePassenger" route="route2" depart="0" departPos="random_free"/>
    <vehicle id="258" type="typePassenger" route="route0" depart="0" departPos="random_free"/>
    <vehicle id="259" type="typePassenger" route="route3" depart="0" departPos="random_free"/>
    <vehicle id="260" type="typePassenger" route="route1" depart="0" departPos="random_free"/>
    <vehicle id="261" type="typePassenger" route="route4" depart="0" departPos="random_free"/>
    <vehicle id="262" type="typePassenger" route="route3" depart="0" departPos="random_free"/>
    <vehicle id="263" type="typePassenger" route="route4" depart="0" departPos="random_free"/>
    <vehicle id="264" type="typePassenger" route="route0" depart="0" departPos="random_free"/>
    <vehicle id="265" type="typePassenger" route="route3" depart="0" departPos="random_free"/>
    <vehicle id="266" type="typePassenger" route="route3" depart="0" departPos="random_free"/>
    <vehicle id="267" type="typePassenger" route="route4" depart="0" departPos="random_free"/>
    <vehicle id="268" type="typePassenger" route="route3" depart="0" departPos="random_free"/>
    <vehicle id="269" type="typePassenger" route="route0" depart="0" departPos="random_free"/>
    <vehicle id="270" type="typePassenger" route="route0" depart="0" departPos="random_free"/>
    <vehicle id="271" type="typePassenger" route="route4" depart="0" departPos="random_free"/>
    <vehicle id="272" type="typePassenger" route="route3" depart="0" departPos="random_free"/>
    <vehicle id="273" type="typePassenger" route="route1" depart="0" departPos="random_free"/>
    <vehicle id="274" type="typePassenger" route="route4" depart="0" departPos="random_free"/>
    <vehicle id="275" type="typePassenger" route="route1" depart="0" departPos="random_free"/>
    <vehicle id="276" type="typePassenger" route="route3" depart="0" departPos="random_free"/>
    <vehicle id="277" type="typeBus" route="route4" depart="0" departPos="random_free"/>
    <vehicle id="278" type="typePassenger" route="route4" depart="0" departPos="random_free"/>
    <vehicle id="279" type="typePassenger" route="route3" depart="0" departPos="random_free"/>
    <vehicle id="280" type="typePassenger" route="route3" depart="0" departPos="random_free"/>
    <vehicle id="281" type="typePassenger" route="route4" depart="0" departPos="random_free"/>
    <vehicle id="282" type="typeBus" route="route4" depart="0" departPos="random_free"/>
    <vehicle id="283" type="typePassenger" route="route4" depart="0" departPos="random_free"/>
    <vehicle id="284" type="typePassenger" route="route3" depart="0" departPos="random_free"/>
    <vehicle id="285" type="typePassenger" route="route1" depart="0" departPos="random_free"/>
    <vehicle id="286" type="typePassenger" route="route4" depart="0" departPos="random_free"/>
    <vehicle id="287" type="typePassenger" route="route4" depart="0" departPos="random_free"/>
    <vehicle id="288" type="typePassenger" route="route3" depart="0" departPos="random_free"/>