<flows>
<flow id="flow0" from="223300795#0 " to="121815695#4 " begin="0" end="1000" no="100" period="3" />
<flow id="flow1" from="446594494#0 " to="407593363#1 " begin="0" end="1000" no="100" period="3"/>
<flow id="flow2" from="448736027#0 " to="23321898#2 " begin="0" end="1000" no="100" period="3"/>
<flow id="flow3" from="449284320#0 " to="121815661#1 " begin="0" end="1000" no="100" period="3"/>
<flow id="flow4" from="11490172#0 " to="447281177#3" begin="0" end="1000" no="100" period="3"/>
</flows>
