<?xml version="1.0"?>
<routes>
   <vType id="typePassenger" accel="2.6" decel="4.5" sigma="0.5" length="2.5" minGap="1" maxSpeed="19" guiShape="passenger"/>
   <vType id="typeBus" accel="0.8" decel="4.5" sigma="0.5" length="10" minGap="1" maxSpeed="19" guiShape="bus" vClass="bus"/>

  <route id="route0" edges="223300795#0 223300795#4 223300795#5 223300795#6 121815695#0 121815695#1 121815695#2-AddedOnRampEdge 121815695#2 121815695#3 121815695#4"/>
      
  <route id="route1" edges="446594494#0 446594494#2 121815662#0 121815662#1 121815662#2 407593363#0 407593363#1"/>

  <route id="route2" edges="448736027#0 448736027#2 448736027#3 223300795#5 23321898#0 23321898#2"/>

  <route id="route3" edges="449284320#0 449284320#1 449284320#2 449284320#3 121815661#0 121815661#1"/>

  <route id="route4" edges="11490172#0 11490172#2 447281176 38619574 447281177#0 447281177#1 447281177#2 447281177#3"/>

  <route id="route5" edges="446594494#0 7981319#0 7981319#2"/>

  <route id="route6" edges="23321897#0 23321897#1 23321897#2 23321897#3 449284320#1 20891186#0 20891186#1 20891186#2"/>

  <route id="route7" edges="11490172#0 11490172#2 39334084 448533599#0 448533599#1 448533599#2 448533599#3 448533599#4 448533599#5"/>

  <route id="route8" edges="446594494#0 7981319#0 448533599#0 448533599#1 448533599#2 448533599#3 448533599#4 448533599#5"/>

  <route id="route9" edges="449284320#0 449284320#1 449284320#2 41078120#0 121815695#1 121815695#2-AddedOnRampEdge 121815695#2 23321634 447281177#0 72839412"/>

  <route id="route10" edges="449284320#0 449284320#1 20891186#0 20891186#1 20891186#2"/>

  <route id="route11" edges="11490172#0 11490172#2 447281176 108852607 8000232#2"/>

  <route id="route12" edges="448736027#0 448736027#2 448736027#3 223300795#5 223300795#6 121815695#0 121815695#1 121815695#2-AddedOnRampEdge 121815695#2 121815695#3 121815695#4"/>

  <route id="route13" edges="-20891194#3 -20891194#2 -20891194#1 -20891194#0"/>

  <route id="route14" edges="20891194#0 20891194#1 20891194#2 20891194#3"/>

  <route id="route15" edges="23321897#0 -23321920 23321920"/>

  <route id="route16" edges="23321897#0 23321897#1 23321897#2 223300796 -223300796"/>

  <route id="route17" edges="23321897#0 51097478"/>

  <route id="route18" edges="23321897#0 23321897#1 23321898#2"/>

  <route id="route19" edges="449284320#0 449284320#1 449284320#2 449284320#3 121815661#0 448533599#1 448533599#2 448533599#3 448533599#4 448533599#5"/>

  <route id="route20" edges="223300795#0 223300795#4 223300795#5 23321898#0 23321898#2"/>

  <route id="route21" edges="223300795#0 223300795#4 223300795#5 223300795#6 121815661#0 121815661#1"/>

  <route id="route22" edges="-72839412 447281177#1 447281177#2 447281177#3"/>

  <route id="route23" edges="-72839412 447281177#1 20891186#2"/>

  <route id="route24" edges="-72839412 447281177#1 447281177#2 23321901 20891194#2 20891194#3"/>

  <route id="route25" edges="483129710  -20891194#2 -20891194#1 20891186#1 20891186#2"/>




  <route id="routei0" edges="223300795#4 223300795#5 223300795#6 121815695#0 121815695#1 121815695#2-AddedOnRampEdge 121815695#2 121815695#3 121815695#4"/>
      
  <route id="routei1" edges="446594494#2 121815662#0 121815662#1 121815662#2 407593363#0 407593363#1"/>

  <route id="routei2" edges="448736027#2 448736027#3 223300795#5 23321898#0 23321898#2"/>

  <route id="routei3" edges="449284320#1 449284320#2 449284320#3 121815661#0 121815661#1"/>

  <route id="routei4" edges="11490172#2 447281176 38619574 447281177#0 447281177#1 447281177#2 447281177#3"/>

  <route id="routei5" edges="223300795#5 223300795#6 121815695#0 121815695#1 121815695#2-AddedOnRampEdge 121815695#2 121815695#3 121815695#4"/>
      
  <route id="routei6" edges="121815662#1 121815662#2 407593363#0 407593363#1"/>

  <route id="routei7" edges="223300795#5 23321898#0 23321898#2"/>

  <route id="routei8" edges="449284320#3 121815661#0 121815661#1"/>

  <route id="routei9" edges="38619574 447281177#0 447281177#1 447281177#2 447281177#3"/>

  <route id="routei10" edges="223300795#6 121815695#0 121815695#1 121815695#2-AddedOnRampEdge 121815695#2 121815695#3 121815695#4"/>
      
  <route id="routei11" edges="121815662#2 407593363#0 407593363#1"/>

  <route id="routei12" edges="23321898#0 23321898#2"/>

  <route id="routei13" edges="121815661#0 121815661#1"/>

  <route id="routei14" edges="447281177#0 447281177#1 447281177#2 447281177#3"/>

  <route id="routei15" edges="121815695#0 121815695#1 121815695#2-AddedOnRampEdge 121815695#2 121815695#3 121815695#4"/>

  <route id="routei16" edges="121815695#1 121815695#2-AddedOnRampEdge 121815695#2 121815695#3 121815695#4"/>

  <route id="routei17" edges="121815695#2-AddedOnRampEdge 121815695#2 121815695#3 121815695#4"/>
  
  <route id="routei18" edges="121815695#2 121815695#3 121815695#4"/>
  
  <route id="routei19" edges="121815695#3 121815695#4"/>

  <route id="routei20" edges="121815695#4"/>

  <route id="routei21" edges="-20891194#3 -20891194#2 -20891194#1 -20891194#0"/>

  <route id="routei22" edges="-20891194#2 -20891194#1 -20891194#0"/>

  <route id="routei23" edges="-20891194#1 -20891194#0"/>

  <route id="routei24" edges="20891194#0 20891194#1 20891194#2 20891194#3"/>

  <route id="routei25" edges="20891194#1 20891194#2 20891194#3"/>

  <route id="routei26" edges="20891194#2 20891194#3"/>

  <route id="routei27" edges="23321897#0 -23321920 23321920"/>

  <route id="routei28" edges="-23321920 23321920"/>

  <route id="routei29" edges="23321897#0 23321897#1 23321897#2 223300796 -223300796"/>

  <route id="routei30" edges="23321897#1 23321897#2 223300796 -223300796"/>

  <route id="routei31" edges="23321897#2 223300796 -223300796"/>

  <route id="routei32" edges="223300796 -223300796"/>

  <route id="routei33" edges="23321897#0 51097478"/>

  <route id="routei34" edges="23321897#1 23321898#2"/>

  <route id="routei35" edges="449284320#0 449284320#1 449284320#2 449284320#3 121815661#0 448533599#1 448533599#2 448533599#3 448533599#4 448533599#5"/>

  <route id="routei36" edges="449284320#1 449284320#2 449284320#3 121815661#0 448533599#1 448533599#2 448533599#3 448533599#4 448533599#5"/>

  <route id="routei37" edges="449284320#2 449284320#3 121815661#0 448533599#1 448533599#2 448533599#3 448533599#4 448533599#5"/>

  <route id="routei38" edges="449284320#3 121815661#0 448533599#1 448533599#2 448533599#3 448533599#4 448533599#5"/>

  <route id="routei39" edges="121815661#0 448533599#1 448533599#2 448533599#3 448533599#4 448533599#5"/>

  <route id="routei40" edges="448533599#1 448533599#2 448533599#3 448533599#4 448533599#5"/>

  <route id="routei41" edges="448533599#2 448533599#3 448533599#4 448533599#5"/>

  <route id="routei42" edges="448533599#3 448533599#4 448533599#5"/>

  <route id="routei43" edges="448533599#4 448533599#5"/>

  <route id="routei44" edges="448533599#5"/>

  <route id="routei45" edges="223300795#0 223300795#4 223300795#5 23321898#0 23321898#2"/>

  <route id="routei46" edges="223300795#4 223300795#5 23321898#0 23321898#2"/>

  <route id="routei47" edges="223300795#5 23321898#0 23321898#2"/>

  <route id="routei48" edges="23321898#0 23321898#2"/>

  <route id="routei49" edges="223300795#6 121815661#0 121815661#1"/>

  <route id="routei50" edges="121815661#0 121815661#1"/>

  <route id="routei51" edges="121815661#1"/>

  <route id="routei52" edges="-72839412 447281177#1 447281177#2 447281177#3"/>

  <route id="routei53" edges="447281177#1 447281177#2 447281177#3"/>

  <route id="routei54" edges="447281177#2 447281177#3"/>

  <route id="routei55" edges="483129710  -20891194#2 -20891194#1 20891186#1 20891186#2"/>

  <route id="routei56" edges="-20891194#2 -20891194#1 20891186#1 20891186#2"/>

  <route id="routei57" edges="-20891194#1 20891186#1 20891186#2"/>

  <route id="routei58" edges="20891186#1 20891186#2"/>
    <vehicle id="0" type="typePassenger" route="route1" depart="0" departPos="random"/>
    <vehicle id="1" type="typeBus" route="route4" depart="0" departPos="random"/>
    <vehicle id="2" type="typePassenger" route="route3" depart="0" departPos="random"/>
    <vehicle id="3" type="typePassenger" route="route1" depart="0" departPos="random"/>
    <vehicle id="4" type="typePassenger" route="route2" depart="0" departPos="random"/>
    <vehicle id="5" type="typePassenger" route="route3" depart="0" departPos="random"/>
    <vehicle id="6" type="typePassenger" route="route2" depart="0" departPos="random"/>
    <vehicle id="7" type="typeBus" route="route0" depart="0" departPos="random"/>
    <vehicle id="8" type="typePassenger" route="route0" depart="0" departPos="random"/>
    <vehicle id="9" type="typePassenger" route="route3" depart="0" departPos="random"/>
    <vehicle id="10" type="typeBus" route="route3" depart="0" departPos="random"/>
    <vehicle id="11" type="typeBus" route="route4" depart="0" departPos="random"/>
    <vehicle id="12" type="typePassenger" route="route1" depart="0" departPos="random"/>
    <vehicle id="13" type="typePassenger" route="route3" depart="0" departPos="random"/>
    <vehicle id="14" type="typeBus" route="route3" depart="0" departPos="random"/>
    <vehicle id="15" type="typeBus" route="route4" depart="0" departPos="random"/>
    <vehicle id="16" type="typePassenger" route="route4" depart="0" departPos="random"/>
    <vehicle id="17" type="typeBus" route="route1" depart="0" departPos="random"/>
    <vehicle id="18" type="typePassenger" route="route3" depart="0" departPos="random"/>
    <vehicle id="19" type="typeBus" route="route4" depart="0" departPos="random"/>
    <vehicle id="20" type="typePassenger" route="route1" depart="0" departPos="random"/>
    <vehicle id="21" type="typeBus" route="route3" depart="0" departPos="random"/>
    <vehicle id="22" type="typePassenger" route="route3" depart="0" departPos="random"/>
    <vehicle id="23" type="typePassenger" route="route1" depart="0" departPos="random"/>
    <vehicle id="24" type="typeBus" route="route0" depart="0" departPos="random"/>
    <vehicle id="25" type="typePassenger" route="route3" depart="0" departPos="random"/>
    <vehicle id="26" type="typePassenger" route="route3" depart="0" departPos="random"/>
    <vehicle id="27" type="typePassenger" route="route4" depart="0" departPos="random"/>
    <vehicle id="28" type="typePassenger" route="route1" depart="0" departPos="random"/>
    <vehicle id="29" type="typeBus" route="route0" depart="0" departPos="random"/>
    <vehicle id="30" type="typeBus" route="route4" depart="0" departPos="random"/>
    <vehicle id="31" type="typePassenger" route="route3" depart="0" departPos="random"/>
    <vehicle id="32" type="typeBus" route="route3" depart="0" departPos="random"/>
    <vehicle id="33" type="typeBus" route="route4" depart="0" departPos="random"/>
    <vehicle id="34" type="typePassenger" route="route3" depart="0" departPos="random"/>
    <vehicle id="35" type="typePassenger" route="route2" depart="0" departPos="random"/>
    <vehicle id="36" type="typePassenger" route="route4" depart="0" departPos="random"/>
    <vehicle id="37" type="typeBus" route="route2" depart="0" departPos="random"/>
    <vehicle id="38" type="typePassenger" route="route3" depart="0" departPos="random"/>
    <vehicle id="39" type="typePassenger" route="route2" depart="0" departPos="random"/>
    <vehicle id="40" type="typePassenger" route="route1" depart="0" departPos="random"/>
    <vehicle id="41" type="typeBus" route="route3" depart="0" departPos="random"/>
    <vehicle id="42" type="typePassenger" route="route4" depart="0" departPos="random"/>
    <vehicle id="43" type="typePassenger" route="route4" depart="0" departPos="random"/>
    <vehicle id="44" type="typePassenger" route="route4" depart="0" departPos="random"/>
    <vehicle id="45" type="typePassenger" route="route3" depart="0" departPos="random"/>
    <vehicle id="46" type="typeBus" route="route0" depart="0" departPos="random"/>
    <vehicle id="47" type="typeBus" route="route0" depart="0" departPos="random"/>
    <vehicle id="48" type="typePassenger" route="route0" depart="0" departPos="random"/>
    <vehicle id="49" type="typeBus" route="route2" depart="0" departPos="random"/>
    <vehicle id="50" type="typeBus" route="route1" depart="0" departPos="random"/>
    <vehicle id="51" type="typeBus" route="route3" depart="0" departPos="random"/>
    <vehicle id="52" type="typeBus" route="route4" depart="0" departPos="random"/>
    <vehicle id="53" type="typePassenger" route="route3" depart="0" departPos="random"/>
    <vehicle id="54" type="typePassenger" route="route2" depart="0" departPos="random"/>
    <vehicle id="55" type="typePassenger" route="route4" depart="0" departPos="random"/>
    <vehicle id="56" type="typePassenger" route="route0" depart="0" departPos="random"/>
    <vehicle id="57" type="typePassenger" route="route4" depart="0" departPos="random"/>
    <vehicle id="58" type="typePassenger" route="route2" depart="0" departPos="random"/>
    <vehicle id="59" type="typePassenger" route="route0" depart="0" departPos="random"/>
    <vehicle id="60" type="typePassenger" route="routei46" depart="0" departPos="random"/>
    <vehicle id="61" type="typeBus" route="routei30" depart="0" departPos="random"/>
    <vehicle id="62" type="typePassenger" route="routei20" depart="0" departPos="random"/>
    <vehicle id="63" type="typePassenger" route="routei54" depart="0" departPos="random"/>
    <vehicle id="64" type="typePassenger" route="routei18" depart="0" departPos="random"/>
    <vehicle id="65" type="typeBus" route="routei50" depart="0" departPos="random"/>
    <vehicle id="66" type="typePassenger" route="routei48" depart="0" departPos="random"/>
    <vehicle id="67" type="typePassenger" route="routei16" depart="0" departPos="random"/>
    <vehicle id="68" type="typePassenger" route="routei17" depart="0" departPos="random"/>
    <vehicle id="69" type="typePassenger" route="routei40" depart="0" departPos="random"/>
    <vehicle id="70" type="typeBus" route="routei29" depart="0" departPos="random"/>
    <vehicle id="71" type="typePassenger" route="routei13" depart="0" departPos="random"/>
    <vehicle id="72" type="typeBus" route="routei27" depart="0" departPos="random"/>
    <vehicle id="73" type="typeBus" route="routei29" depart="0" departPos="random"/>
    <vehicle id="74" type="typePassenger" route="routei48" depart="0" departPos="random"/>
    <vehicle id="75" type="typeBus" route="routei48" depart="0" departPos="random"/>
    <vehicle id="76" type="typePassenger" route="routei41" depart="0" departPos="random"/>
    <vehicle id="77" type="typeBus" route="routei44" depart="0" departPos="random"/>
    <vehicle id="78" type="typeBus" route="routei47" depart="0" departPos="random"/>
    <vehicle id="79" type="typePassenger" route="routei21" depart="0" departPos="random"/>
    <vehicle id="80" type="typeBus" route="routei51" depart="0" departPos="random"/>
    <vehicle id="81" type="typeBus" route="routei51" depart="0" departPos="random"/>
    <vehicle id="82" type="typePassenger" route="routei8" depart="0" departPos="random"/>
    <vehicle id="83" type="typePassenger" route="routei31" depart="0" departPos="random"/>
    <vehicle id="84" type="typeBus" route="routei48" depart="0" departPos="random"/>
    <vehicle id="85" type="typePassenger" route="routei1" depart="0" departPos="random"/>
    <vehicle id="86" type="typePassenger" route="routei42" depart="0" departPos="random"/>
    <vehicle id="87" type="typePassenger" route="routei10" depart="0" departPos="random"/>
    <vehicle id="88" type="typePassenger" route="routei34" depart="0" departPos="random"/>
    <vehicle id="89" type="typePassenger" route="routei28" depart="0" departPos="random"/>
    <vehicle id="90" type="typePassenger" route="routei42" depart="0" departPos="random"/>
    <vehicle id="91" type="typeBus" route="routei10" depart="0" departPos="random"/>
    <vehicle id="92" type="typePassenger" route="routei44" depart="0" departPos="random"/>
    <vehicle id="93" type="typePassenger" route="routei50" depart="0" departPos="random"/>
    <vehicle id="94" type="typePassenger" route="routei42" depart="0" departPos="random"/>
    <vehicle id="95" type="typeBus" route="routei22" depart="0" departPos="random"/>
    <vehicle id="96" type="typeBus" route="routei49" depart="0" departPos="random"/>
    <vehicle id="97" type="typePassenger" route="routei39" depart="0" departPos="random"/>
    <vehicle id="98" type="typePassenger" route="routei21" depart="0" departPos="random"/>
    <vehicle id="99" type="typePassenger" route="routei5" depart="0" departPos="random"/>
    <vehicle id="100" type="typePassenger" route="routei20" depart="0" departPos="random"/>
    <vehicle id="101" type="typePassenger" route="routei10" depart="0" departPos="random"/>
    <vehicle id="102" type="typeBus" route="routei5" depart="0" departPos="random"/>
    <vehicle id="103" type="typePassenger" route="routei18" depart="0" departPos="random"/>
    <vehicle id="104" type="typePassenger" route="routei18" depart="0" departPos="random"/>
    <vehicle id="105" type="typePassenger" route="routei11" depart="0" departPos="random"/>
    <vehicle id="106" type="typePassenger" route="routei57" depart="0" departPos="random"/>
    <vehicle id="107" type="typePassenger" route="routei40" depart="0" departPos="random"/>
    <vehicle id="108" type="typePassenger" route="routei53" depart="0" departPos="random"/>
    <vehicle id="109" type="typePassenger" route="routei16" depart="0" departPos="random"/>
    <vehicle id="110" type="typePassenger" route="routei46" depart="0" departPos="random"/>
    <vehicle id="111" type="typePassenger" route="routei9" depart="0" departPos="random"/>
    <vehicle id="112" type="typePassenger" route="routei27" depart="0" departPos="random"/>
    <vehicle id="113" type="typePassenger" route="routei52" depart="0" departPos="random"/>
    <vehicle id="114" type="typePassenger" route="routei14" depart="0" departPos="random"/>
    <vehicle id="115" type="typePassenger" route="routei31" depart="0" departPos="random"/>
    <vehicle id="116" type="typePassenger" route="routei40" depart="0" departPos="random"/>
    <vehicle id="117" type="typePassenger" route="routei14" depart="0" departPos="random"/>
    <vehicle id="118" type="typePassenger" route="routei44" depart="0" departPos="random"/>
    <vehicle id="119" type="typePassenger" route="routei11" depart="0" departPos="random"/>
    <vehicle id="120" type="typePassenger" route="routei16" depart="0" departPos="random"/>
    <vehicle id="121" type="typePassenger" route="routei50" depart="0" departPos="random"/>
    <vehicle id="122" type="typePassenger" route="routei5" depart="0" departPos="random"/>
    <vehicle id="123" type="typePassenger" route="routei58" depart="0" departPos="random"/>
    <vehicle id="124" type="typePassenger" route="routei23" depart="0" departPos="random"/>
    <vehicle id="125" type="typePassenger" route="routei44" depart="0" departPos="random"/>
    <vehicle id="126" type="typeBus" route="routei38" depart="0" departPos="random"/>
    <vehicle id="127" type="typeBus" route="routei54" depart="0" departPos="random"/>
    <vehicle id="128" type="typePassenger" route="routei55" depart="0" departPos="random"/>
    <vehicle id="129" type="typePassenger" route="routei38" depart="0" departPos="random"/>
    <vehicle id="130" type="typeBus" route="routei11" depart="0" departPos="random"/>
    <vehicle id="131" type="typePassenger" route="routei21" depart="0" departPos="random"/>
    <vehicle id="132" type="typeBus" route="routei24" depart="0" departPos="random"/>
    <vehicle id="133" type="typeBus" route="routei33" depart="0" departPos="random"/>
    <vehicle id="134" type="typePassenger" route="routei50" depart="0" departPos="random"/>
    <vehicle id="135" type="typePassenger" route="routei57" depart="0" departPos="random"/>
    <vehicle id="136" type="typePassenger" route="routei37" depart="0" departPos="random"/>
    <vehicle id="137" type="typePassenger" route="routei4" depart="0" departPos="random"/>
    <vehicle id="138" type="typePassenger" route="routei52" depart="0" departPos="random"/>
    <vehicle id="139" type="typePassenger" route="routei40" depart="0" departPos="random"/>
    <vehicle id="140" type="typePassenger" route="routei56" depart="0" departPos="random"/>
    <vehicle id="141" type="typePassenger" route="routei45" depart="0" departPos="random"/>
    <vehicle id="142" type="typeBus" route="routei55" depart="0" departPos="random"/>
    <vehicle id="143" type="typePassenger" route="routei26" depart="0" departPos="random"/>
    <vehicle id="144" type="typePassenger" route="routei15" depart="0" departPos="random"/>
    <vehicle id="145" type="typeBus" route="routei36" depart="0" departPos="random"/>
    <vehicle id="146" type="typePassenger" route="routei5" depart="0" departPos="random"/>
    <vehicle id="147" type="typePassenger" route="routei53" depart="0" departPos="random"/>
    <vehicle id="148" type="typePassenger" route="routei31" depart="0" departPos="random"/>
    <vehicle id="149" type="typePassenger" route="routei27" depart="0" departPos="random"/>
    <vehicle id="150" type="typePassenger" route="routei56" depart="0" departPos="random"/>
    <vehicle id="151" type="typePassenger" route="routei53" depart="0" departPos="random"/>
    <vehicle id="152" type="typePassenger" route="routei30" depart="0" departPos="random"/>
    <vehicle id="153" type="typePassenger" route="routei17" depart="0" departPos="random"/>
    <vehicle id="154" type="typeBus" route="routei58" depart="0" departPos="random"/>
    <vehicle id="155" type="typePassenger" route="routei15" depart="0" departPos="random"/>
    <vehicle id="156" type="typePassenger" route="routei5" depart="0" departPos="random"/>
    <vehicle id="157" type="typePassenger" route="routei9" depart="0" departPos="random"/>
    <vehicle id="158" type="typePassenger" route="routei4" depart="0" departPos="random"/>
    <vehicle id="159" type="typePassenger" route="routei15" depart="0" departPos="random"/>
    <vehicle id="160" type="typePassenger" route="routei47" depart="0" departPos="random"/>
    <vehicle id="161" type="typePassenger" route="routei10" depart="0" departPos="random"/>
    <vehicle id="162" type="typePassenger" route="routei8" depart="0" departPos="random"/>
    <vehicle id="163" type="typePassenger" route="routei0" depart="0" departPos="random"/>
    <vehicle id="164" type="typePassenger" route="routei4" depart="0" departPos="random"/>
    <vehicle id="165" type="typePassenger" route="routei55" depart="0" departPos="random"/>
    <vehicle id="166" type="typePassenger" route="routei38" depart="0" departPos="random"/>
    <vehicle id="167" type="typeBus" route="routei58" depart="0" departPos="random"/>
    <vehicle id="168" type="typePassenger" route="routei56" depart="0" departPos="random"/>
    <vehicle id="169" type="typeBus" route="routei17" depart="0" departPos="random"/>
    <vehicle id="170" type="typePassenger" route="routei44" depart="0" departPos="random"/>
    <vehicle id="171" type="typeBus" route="routei26" depart="0" departPos="random"/>
    <vehicle id="172" type="typePassenger" route="routei14" depart="0" departPos="random"/>
    <vehicle id="173" type="typeBus" route="routei4" depart="0" departPos="random"/>
    <vehicle id="174" type="typePassenger" route="routei24" depart="0" departPos="random"/>
    <vehicle id="175" type="typePassenger" route="routei28" depart="0" departPos="random"/>
    <vehicle id="176" type="typePassenger" route="routei22" depart="0" departPos="random"/>
    <vehicle id="177" type="typePassenger" route="routei8" depart="0" departPos="random"/>
    <vehicle id="178" type="typeBus" route="routei26" depart="0" departPos="random"/>
    <vehicle id="179" type="typePassenger" route="routei28" depart="0" departPos="random"/>
    <vehicle id="180" type="typePassenger" route="routei55" depart="0" departPos="random"/>
    <vehicle id="181" type="typePassenger" route="routei54" depart="0" departPos="random"/>
    <vehicle id="182" type="typeBus" route="routei20" depart="0" departPos="random"/>
    <vehicle id="183" type="typeBus" route="routei17" depart="0" departPos="random"/>
    <vehicle id="184" type="typePassenger" route="routei14" depart="0" departPos="random"/>
    <vehicle id="185" type="typePassenger" route="routei55" depart="0" departPos="random"/>
    <vehicle id="186" type="typePassenger" route="routei53" depart="0" departPos="random"/>
    <vehicle id="187" type="typePassenger" route="routei44" depart="0" departPos="random"/>
    <vehicle id="188" type="typePassenger" route="routei34" depart="0" departPos="random"/>
    <vehicle id="189" type="typePassenger" route="routei35" depart="0" departPos="random"/>
    <vehicle id="190" type="typePassenger" route="routei13" depart="0" departPos="random"/>
    <vehicle id="191" type="typeBus" route="routei25" depart="0" departPos="random"/>
    <vehicle id="192" type="typePassenger" route="routei7" depart="0" departPos="random"/>
    <vehicle id="193" type="typePassenger" route="routei1" depart="0" departPos="random"/>
    <vehicle id="194" type="typePassenger" route="routei14" depart="0" departPos="random"/>
    <vehicle id="195" type="typePassenger" route="routei49" depart="0" departPos="random"/>
    <vehicle id="196" type="typePassenger" route="routei23" depart="0" departPos="random"/>
    <vehicle id="197" type="typePassenger" route="routei52" depart="0" departPos="random"/>
    <vehicle id="198" type="typePassenger" route="routei23" depart="0" departPos="random"/>
    <vehicle id="199" type="typePassenger" route="routei49" depart="0" departPos="random"/>
    <vehicle id="200" type="typePassenger" route="routei52" depart="0" departPos="random"/>
    <vehicle id="201" type="typeBus" route="routei40" depart="0" departPos="random"/>
    <vehicle id="202" type="typePassenger" route="routei2" depart="0" departPos="random"/>
    <vehicle id="203" type="typePassenger" route="routei49" depart="0" departPos="random"/>
    <vehicle id="204" type="typePassenger" route="routei3" depart="0" departPos="random"/>
    <vehicle id="205" type="typePassenger" route="routei31" depart="0" departPos="random"/>
    <vehicle id="206" type="typePassenger" route="routei24" depart="0" departPos="random"/>
    <vehicle id="207" type="typePassenger" route="routei39" depart="0" departPos="random"/>
    <vehicle id="208" type="typePassenger" route="routei26" depart="0" departPos="random"/>
    <vehicle id="209" type="typePassenger" route="routei14" depart="0" departPos="random"/>
    <vehicle id="210" type="typePassenger" route="routei44" depart="0" departPos="random"/>
    <vehicle id="211" type="typeBus" route="routei8" depart="0" departPos="random"/>
    <vehicle id="212" type="typeBus" route="routei39" depart="0" departPos="random"/>
    <vehicle id="213" type="typePassenger" route="routei39" depart="0" departPos="random"/>
    <vehicle id="214" type="typePassenger" route="routei1" depart="0" departPos="random"/>
    <vehicle id="215" type="typePassenger" route="routei27" depart="0" departPos="random"/>
    <vehicle id="216" type="typePassenger" route="routei14" depart="0" departPos="random"/>
    <vehicle id="217" type="typePassenger" route="routei13" depart="0" departPos="random"/>
    <vehicle id="218" type="typeBus" route="routei33" depart="0" departPos="random"/>
    <vehicle id="219" type="typeBus" route="routei25" depart="0" departPos="random"/>
    <vehicle id="220" type="typePassenger" route="routei47" depart="0" departPos="random"/>
    <vehicle id="221" type="typePassenger" route="routei27" depart="0" departPos="random"/>
    <vehicle id="222" type="typeBus" route="routei41" depart="0" departPos="random"/>
    <vehicle id="223" type="typePassenger" route="routei37" depart="0" departPos="random"/>
    <vehicle id="224" type="typePassenger" route="routei29" depart="0" departPos="random"/>
    <vehicle id="225" type="typePassenger" route="routei31" depart="0" departPos="random"/>
    <vehicle id="226" type="typeBus" route="routei36" depart="0" departPos="random"/>
    <vehicle id="227" type="typeBus" route="routei39" depart="0" departPos="random"/>
    <vehicle id="228" type="typePassenger" route="routei40" depart="0" departPos="random"/>
    <vehicle id="229" type="typeBus" route="routei42" depart="0" departPos="random"/>
    <vehicle id="230" type="typePassenger" route="routei58" depart="0" departPos="random"/>
    <vehicle id="231" type="typePassenger" route="routei9" depart="0" departPos="random"/>
    <vehicle id="232" type="typePassenger" route="routei10" depart="0" departPos="random"/>
    <vehicle id="233" type="typePassenger" route="routei1" depart="0" departPos="random"/>
    <vehicle id="234" type="typeBus" route="routei23" depart="0" departPos="random"/>
    <vehicle id="235" type="typeBus" route="routei56" depart="0" departPos="random"/>
    <vehicle id="236" type="typePassenger" route="routei15" depart="0" departPos="random"/>
    <vehicle id="237" type="typePassenger" route="routei20" depart="0" departPos="random"/>
    <vehicle id="238" type="typePassenger" route="routei7" depart="0" departPos="random"/>
    <vehicle id="239" type="typePassenger" route="routei26" depart="0" departPos="random"/>
    <vehicle id="240" type="typeBus" route="routei26" depart="0" departPos="random"/>
    <vehicle id="241" type="typeBus" route="routei2" depart="0" departPos="random"/>
    <vehicle id="242" type="typePassenger" route="routei35" depart="0" departPos="random"/>
    <vehicle id="243" type="typePassenger" route="routei30" depart="0" departPos="random"/>
    <vehicle id="244" type="typePassenger" route="routei15" depart="0" departPos="random"/>
    <vehicle id="245" type="typeBus" route="routei54" depart="0" departPos="random"/>
    <vehicle id="246" type="typePassenger" route="routei15" depart="0" departPos="random"/>
    <vehicle id="247" type="typePassenger" route="routei40" depart="0" departPos="random"/>