<?xml version="1.0" encoding="UTF-8"?>

<!-- generated on Fri May  4 12:39:52 2018 by SUMO duarouter Version 0.30.0
<?xml version="1.0" encoding="UTF-8"?>

<configuration xmlns:xsi="http://www.w3.org/2001/XMLSchema-instance" xsi:noNamespaceSchemaLocation="http://sumo.dlr.de/xsd/duarouterConfiguration.xsd">

    <input>
        <net-file value="/home/aware/Documentos/STGO-SUMO/scenario_STGO-1/stgo1.net.xml"/>
        <flow-files value="/home/aware/Documentos/STGO-SUMO/scenario_STGO-1/Primaryflow.flow.xml"/>
    </input>

    <output>
        <output-file value="stgoV2.rou.xml"/>
    </output>

    <processing>
        <ignore-errors value="true"/>
    </processing>

    <time>
        <begin value="0"/>
        <end value="1000"/>
    </time>

    <report>
        <verbose value="true"/>
    </report>

</configuration>
-->

<routes xmlns:xsi="http://www.w3.org/2001/XMLSchema-instance" xsi:noNamespaceSchemaLocation="http://sumo.dlr.de/xsd/routes_file.xsd">
    <vehicle id="flow0.0" depart="0.00">
        <route edges="223300795#0 223300795#4 223300795#5 223300795#6 121815695#0 121815695#1 121815695#2-AddedOnRampEdge 121815695#2 121815695#3 121815695#4"/>
    </vehicle>
    <vehicle id="flow1.0" depart="0.00">
        <route edges="446594494#0 446594494#2 121815662#0 121815662#1 121815662#2 407593363#0 407593363#1"/>
    </vehicle>
    <vehicle id="flow10.0" depart="0.00">
        <route edges="11490172#0 11490172#2 39334084 448533599#0 448533599#1 448533599#2 448533599#3 448533599#4 448533599#5"/>
    </vehicle>
    <vehicle id="flow11.0" depart="0.00">
        <route edges="449284320#0 449284320#1 449284320#2 41078120#0 121815695#1 121815695#2-AddedOnRampEdge 121815695#2 121815695#3 121815695#4"/>
    </vehicle>
    <vehicle id="flow2.0" depart="0.00">
        <route edges="448736027#0 448736027#2 448736027#3 223300795#5 23321898#0 23321898#2"/>
    </vehicle>
    <vehicle id="flow3.0" depart="0.00">
        <route edges="449284320#0 449284320#1 449284320#2 449284320#3 121815661#0 121815661#1"/>
    </vehicle>
    <vehicle id="flow4.0" depart="0.00">
        <route edges="11490172#0 11490172#2 447281176 38619574 447281177#0 447281177#1 447281177#2 447281177#3"/>
    </vehicle>
    <vehicle id="flow5.0" depart="0.00">
        <route edges="446594494#0 7981319#0 7981319#2"/>
    </vehicle>
    <vehicle id="flow6.0" depart="0.00">
        <route edges="23321897#0 23321897#1 23321897#2 223300796"/>
    </vehicle>
    <vehicle id="flow7.0" depart="0.00">
        <route edges="449284320#0 449284320#1 20891186#0 20891186#1 20891186#2"/>
    </vehicle>
    <vehicle id="flow8.0" depart="0.00">
        <route edges="11490172#0 11490172#2 447281176 108852607 8000232#2"/>
    </vehicle>
    <vehicle id="flow9.0" depart="0.00">
        <route edges="449284320#0 449284320#1 20891186#0 20891194#1 20891194#2 20891194#3"/>
    </vehicle>
    <vehicle id="flow0.1" depart="3.00">
        <route edges="223300795#0 223300795#4 223300795#5 223300795#6 121815695#0 121815695#1 121815695#2-AddedOnRampEdge 121815695#2 121815695#3 121815695#4"/>
    </vehicle>
    <vehicle id="flow1.1" depart="3.00">
        <route edges="446594494#0 446594494#2 121815662#0 121815662#1 121815662#2 407593363#0 407593363#1"/>
    </vehicle>
    <vehicle id="flow10.1" depart="3.00">
        <route edges="11490172#0 11490172#2 39334084 448533599#0 448533599#1 448533599#2 448533599#3 448533599#4 448533599#5"/>
    </vehicle>
    <vehicle id="flow11.1" depart="3.00">
        <route edges="449284320#0 449284320#1 449284320#2 41078120#0 121815695#1 121815695#2-AddedOnRampEdge 121815695#2 121815695#3 121815695#4"/>
    </vehicle>
    <vehicle id="flow2.1" depart="3.00">
        <route edges="448736027#0 448736027#2 448736027#3 223300795#5 23321898#0 23321898#2"/>
    </vehicle>
    <vehicle id="flow3.1" depart="3.00">
        <route edges="449284320#0 449284320#1 449284320#2 449284320#3 121815661#0 121815661#1"/>
    </vehicle>
    <vehicle id="flow4.1" depart="3.00">
        <route edges="11490172#0 11490172#2 447281176 38619574 447281177#0 447281177#1 447281177#2 447281177#3"/>
    </vehicle>
    <vehicle id="flow5.1" depart="3.00">
        <route edges="446594494#0 7981319#0 7981319#2"/>
    </vehicle>
    <vehicle id="flow6.1" depart="3.00">
        <route edges="23321897#0 23321897#1 23321897#2 223300796"/>
    </vehicle>
    <vehicle id="flow7.1" depart="3.00">
        <route edges="449284320#0 449284320#1 20891186#0 20891186#1 20891186#2"/>
    </vehicle>
    <vehicle id="flow8.1" depart="3.00">
        <route edges="11490172#0 11490172#2 447281176 108852607 8000232#2"/>
    </vehicle>
    <vehicle id="flow9.1" depart="3.00">
        <route edges="449284320#0 449284320#1 20891186#0 20891194#1 20891194#2 20891194#3"/>
    </vehicle>
    <vehicle id="flow0.2" depart="6.00">
        <route edges="223300795#0 223300795#4 223300795#5 223300795#6 121815695#0 121815695#1 121815695#2-AddedOnRampEdge 121815695#2 121815695#3 121815695#4"/>
    </vehicle>
    <vehicle id="flow1.2" depart="6.00">
        <route edges="446594494#0 446594494#2 121815662#0 121815662#1 121815662#2 407593363#0 407593363#1"/>
    </vehicle>
    <vehicle id="flow10.2" depart="6.00">
        <route edges="11490172#0 11490172#2 39334084 448533599#0 448533599#1 448533599#2 448533599#3 448533599#4 448533599#5"/>
    </vehicle>
    <vehicle id="flow11.2" depart="6.00">
        <route edges="449284320#0 449284320#1 449284320#2 41078120#0 121815695#1 121815695#2-AddedOnRampEdge 121815695#2 121815695#3 121815695#4"/>
    </vehicle>
    <vehicle id="flow2.2" depart="6.00">
        <route edges="448736027#0 448736027#2 448736027#3 223300795#5 23321898#0 23321898#2"/>
    </vehicle>
    <vehicle id="flow3.2" depart="6.00">
        <route edges="449284320#0 449284320#1 449284320#2 449284320#3 121815661#0 121815661#1"/>
    </vehicle>
    <vehicle id="flow4.2" depart="6.00">
        <route edges="11490172#0 11490172#2 447281176 38619574 447281177#0 447281177#1 447281177#2 447281177#3"/>
    </vehicle>
    <vehicle id="flow5.2" depart="6.00">
        <route edges="446594494#0 7981319#0 7981319#2"/>
    </vehicle>
    <vehicle id="flow6.2" depart="6.00">
        <route edges="23321897#0 23321897#1 23321897#2 223300796"/>
    </vehicle>
    <vehicle id="flow7.2" depart="6.00">
        <route edges="449284320#0 449284320#1 20891186#0 20891186#1 20891186#2"/>
    </vehicle>
    <vehicle id="flow8.2" depart="6.00">
        <route edges="11490172#0 11490172#2 447281176 108852607 8000232#2"/>
    </vehicle>
    <vehicle id="flow9.2" depart="6.00">
        <route edges="449284320#0 449284320#1 20891186#0 20891194#1 20891194#2 20891194#3"/>
    </vehicle>
    <vehicle id="flow0.3" depart="9.00">
        <route edges="223300795#0 223300795#4 223300795#5 223300795#6 121815695#0 121815695#1 121815695#2-AddedOnRampEdge 121815695#2 121815695#3 121815695#4"/>
    </vehicle>
    <vehicle id="flow1.3" depart="9.00">
        <route edges="446594494#0 446594494#2 121815662#0 121815662#1 121815662#2 407593363#0 407593363#1"/>
    </vehicle>
    <vehicle id="flow10.3" depart="9.00">
        <route edges="11490172#0 11490172#2 39334084 448533599#0 448533599#1 448533599#2 448533599#3 448533599#4 448533599#5"/>
    </vehicle>
    <vehicle id="flow11.3" depart="9.00">
        <route edges="449284320#0 449284320#1 449284320#2 41078120#0 121815695#1 121815695#2-AddedOnRampEdge 121815695#2 121815695#3 121815695#4"/>
    </vehicle>
    <vehicle id="flow2.3" depart="9.00">
        <route edges="448736027#0 448736027#2 448736027#3 223300795#5 23321898#0 23321898#2"/>
    </vehicle>
    <vehicle id="flow3.3" depart="9.00">
        <route edges="449284320#0 449284320#1 449284320#2 449284320#3 121815661#0 121815661#1"/>
    </vehicle>
    <vehicle id="flow4.3" depart="9.00">
        <route edges="11490172#0 11490172#2 447281176 38619574 447281177#0 447281177#1 447281177#2 447281177#3"/>
    </vehicle>
    <vehicle id="flow5.3" depart="9.00">
        <route edges="446594494#0 7981319#0 7981319#2"/>
    </vehicle>
    <vehicle id="flow6.3" depart="9.00">
        <route edges="23321897#0 23321897#1 23321897#2 223300796"/>
    </vehicle>
    <vehicle id="flow7.3" depart="9.00">
        <route edges="449284320#0 449284320#1 20891186#0 20891186#1 20891186#2"/>
    </vehicle>
    <vehicle id="flow8.3" depart="9.00">
        <route edges="11490172#0 11490172#2 447281176 108852607 8000232#2"/>
    </vehicle>
    <vehicle id="flow9.3" depart="9.00">
        <route edges="449284320#0 449284320#1 20891186#0 20891194#1 20891194#2 20891194#3"/>
    </vehicle>
    <vehicle id="flow0.4" depart="12.00">
        <route edges="223300795#0 223300795#4 223300795#5 223300795#6 121815695#0 121815695#1 121815695#2-AddedOnRampEdge 121815695#2 121815695#3 121815695#4"/>
    </vehicle>
    <vehicle id="flow1.4" depart="12.00">
        <route edges="446594494#0 446594494#2 121815662#0 121815662#1 121815662#2 407593363#0 407593363#1"/>
    </vehicle>
    <vehicle id="flow10.4" depart="12.00">
        <route edges="11490172#0 11490172#2 39334084 448533599#0 448533599#1 448533599#2 448533599#3 448533599#4 448533599#5"/>
    </vehicle>
    <vehicle id="flow11.4" depart="12.00">
        <route edges="449284320#0 449284320#1 449284320#2 41078120#0 121815695#1 121815695#2-AddedOnRampEdge 121815695#2 121815695#3 121815695#4"/>
    </vehicle>
    <vehicle id="flow2.4" depart="12.00">
        <route edges="448736027#0 448736027#2 448736027#3 223300795#5 23321898#0 23321898#2"/>
    </vehicle>
    <vehicle id="flow3.4" depart="12.00">
        <route edges="449284320#0 449284320#1 449284320#2 449284320#3 121815661#0 121815661#1"/>
    </vehicle>
    <vehicle id="flow4.4" depart="12.00">
        <route edges="11490172#0 11490172#2 447281176 38619574 447281177#0 447281177#1 447281177#2 447281177#3"/>
    </vehicle>
    <vehicle id="flow5.4" depart="12.00">
        <route edges="446594494#0 7981319#0 7981319#2"/>
    </vehicle>
    <vehicle id="flow6.4" depart="12.00">
        <route edges="23321897#0 23321897#1 23321897#2 223300796"/>
    </vehicle>
    <vehicle id="flow7.4" depart="12.00">
        <route edges="449284320#0 449284320#1 20891186#0 20891186#1 20891186#2"/>
    </vehicle>
    <vehicle id="flow8.4" depart="12.00">
        <route edges="11490172#0 11490172#2 447281176 108852607 8000232#2"/>
    </vehicle>
    <vehicle id="flow9.4" depart="12.00">
        <route edges="449284320#0 449284320#1 20891186#0 20891194#1 20891194#2 20891194#3"/>
    </vehicle>
    <vehicle id="flow0.5" depart="15.00">
        <route edges="223300795#0 223300795#4 223300795#5 223300795#6 121815695#0 121815695#1 121815695#2-AddedOnRampEdge 121815695#2 121815695#3 121815695#4"/>
    </vehicle>
    <vehicle id="flow1.5" depart="15.00">
        <route edges="446594494#0 446594494#2 121815662#0 121815662#1 121815662#2 407593363#0 407593363#1"/>
    </vehicle>
    <vehicle id="flow10.5" depart="15.00">
        <route edges="11490172#0 11490172#2 39334084 448533599#0 448533599#1 448533599#2 448533599#3 448533599#4 448533599#5"/>
    </vehicle>
    <vehicle id="flow11.5" depart="15.00">
        <route edges="449284320#0 449284320#1 449284320#2 41078120#0 121815695#1 121815695#2-AddedOnRampEdge 121815695#2 121815695#3 121815695#4"/>
    </vehicle>
    <vehicle id="flow2.5" depart="15.00">
        <route edges="448736027#0 448736027#2 448736027#3 223300795#5 23321898#0 23321898#2"/>
    </vehicle>
    <vehicle id="flow3.5" depart="15.00">
        <route edges="449284320#0 449284320#1 449284320#2 449284320#3 121815661#0 121815661#1"/>
    </vehicle>
    <vehicle id="flow4.5" depart="15.00">
        <route edges="11490172#0 11490172#2 447281176 38619574 447281177#0 447281177#1 447281177#2 447281177#3"/>
    </vehicle>
    <vehicle id="flow5.5" depart="15.00">
        <route edges="446594494#0 7981319#0 7981319#2"/>
    </vehicle>
    <vehicle id="flow6.5" depart="15.00">
        <route edges="23321897#0 23321897#1 23321897#2 223300796"/>
    </vehicle>
    <vehicle id="flow7.5" depart="15.00">
        <route edges="449284320#0 449284320#1 20891186#0 20891186#1 20891186#2"/>
    </vehicle>
    <vehicle id="flow8.5" depart="15.00">
        <route edges="11490172#0 11490172#2 447281176 108852607 8000232#2"/>
    </vehicle>
    <vehicle id="flow9.5" depart="15.00">
        <route edges="449284320#0 449284320#1 20891186#0 20891194#1 20891194#2 20891194#3"/>
    </vehicle>
    <vehicle id="flow0.6" depart="18.00">
        <route edges="223300795#0 223300795#4 223300795#5 223300795#6 121815695#0 121815695#1 121815695#2-AddedOnRampEdge 121815695#2 121815695#3 121815695#4"/>
    </vehicle>
    <vehicle id="flow1.6" depart="18.00">
        <route edges="446594494#0 446594494#2 121815662#0 121815662#1 121815662#2 407593363#0 407593363#1"/>
    </vehicle>
    <vehicle id="flow10.6" depart="18.00">
        <route edges="11490172#0 11490172#2 39334084 448533599#0 448533599#1 448533599#2 448533599#3 448533599#4 448533599#5"/>
    </vehicle>
    <vehicle id="flow11.6" depart="18.00">
        <route edges="449284320#0 449284320#1 449284320#2 41078120#0 121815695#1 121815695#2-AddedOnRampEdge 121815695#2 121815695#3 121815695#4"/>
    </vehicle>
    <vehicle id="flow2.6" depart="18.00">
        <route edges="448736027#0 448736027#2 448736027#3 223300795#5 23321898#0 23321898#2"/>
    </vehicle>
    <vehicle id="flow3.6" depart="18.00">
        <route edges="449284320#0 449284320#1 449284320#2 449284320#3 121815661#0 121815661#1"/>
    </vehicle>
    <vehicle id="flow4.6" depart="18.00">
        <route edges="11490172#0 11490172#2 447281176 38619574 447281177#0 447281177#1 447281177#2 447281177#3"/>
    </vehicle>
    <vehicle id="flow5.6" depart="18.00">
        <route edges="446594494#0 7981319#0 7981319#2"/>
    </vehicle>
    <vehicle id="flow6.6" depart="18.00">
        <route edges="23321897#0 23321897#1 23321897#2 223300796"/>
    </vehicle>
    <vehicle id="flow7.6" depart="18.00">
        <route edges="449284320#0 449284320#1 20891186#0 20891186#1 20891186#2"/>
    </vehicle>
    <vehicle id="flow8.6" depart="18.00">
        <route edges="11490172#0 11490172#2 447281176 108852607 8000232#2"/>
    </vehicle>
    <vehicle id="flow9.6" depart="18.00">
        <route edges="449284320#0 449284320#1 20891186#0 20891194#1 20891194#2 20891194#3"/>
    </vehicle>
    <vehicle id="flow0.7" depart="21.00">
        <route edges="223300795#0 223300795#4 223300795#5 223300795#6 121815695#0 121815695#1 121815695#2-AddedOnRampEdge 121815695#2 121815695#3 121815695#4"/>
    </vehicle>
    <vehicle id="flow1.7" depart="21.00">
        <route edges="446594494#0 446594494#2 121815662#0 121815662#1 121815662#2 407593363#0 407593363#1"/>
    </vehicle>
    <vehicle id="flow10.7" depart="21.00">
        <route edges="11490172#0 11490172#2 39334084 448533599#0 448533599#1 448533599#2 448533599#3 448533599#4 448533599#5"/>
    </vehicle>
    <vehicle id="flow11.7" depart="21.00">
        <route edges="449284320#0 449284320#1 449284320#2 41078120#0 121815695#1 121815695#2-AddedOnRampEdge 121815695#2 121815695#3 121815695#4"/>
    </vehicle>
    <vehicle id="flow2.7" depart="21.00">
        <route edges="448736027#0 448736027#2 448736027#3 223300795#5 23321898#0 23321898#2"/>
    </vehicle>
    <vehicle id="flow3.7" depart="21.00">
        <route edges="449284320#0 449284320#1 449284320#2 449284320#3 121815661#0 121815661#1"/>
    </vehicle>
    <vehicle id="flow4.7" depart="21.00">
        <route edges="11490172#0 11490172#2 447281176 38619574 447281177#0 447281177#1 447281177#2 447281177#3"/>
    </vehicle>
    <vehicle id="flow5.7" depart="21.00">
        <route edges="446594494#0 7981319#0 7981319#2"/>
    </vehicle>
    <vehicle id="flow6.7" depart="21.00">
        <route edges="23321897#0 23321897#1 23321897#2 223300796"/>
    </vehicle>
    <vehicle id="flow7.7" depart="21.00">
        <route edges="449284320#0 449284320#1 20891186#0 20891186#1 20891186#2"/>
    </vehicle>
    <vehicle id="flow8.7" depart="21.00">
        <route edges="11490172#0 11490172#2 447281176 108852607 8000232#2"/>
    </vehicle>
    <vehicle id="flow9.7" depart="21.00">
        <route edges="449284320#0 449284320#1 20891186#0 20891194#1 20891194#2 20891194#3"/>
    </vehicle>
    <vehicle id="flow0.8" depart="24.00">
        <route edges="223300795#0 223300795#4 223300795#5 223300795#6 121815695#0 121815695#1 121815695#2-AddedOnRampEdge 121815695#2 121815695#3 121815695#4"/>
    </vehicle>
    <vehicle id="flow1.8" depart="24.00">
        <route edges="446594494#0 446594494#2 121815662#0 121815662#1 121815662#2 407593363#0 407593363#1"/>
    </vehicle>
    <vehicle id="flow10.8" depart="24.00">
        <route edges="11490172#0 11490172#2 39334084 448533599#0 448533599#1 448533599#2 448533599#3 448533599#4 448533599#5"/>
    </vehicle>
    <vehicle id="flow11.8" depart="24.00">
        <route edges="449284320#0 449284320#1 449284320#2 41078120#0 121815695#1 121815695#2-AddedOnRampEdge 121815695#2 121815695#3 121815695#4"/>
    </vehicle>
    <vehicle id="flow2.8" depart="24.00">
        <route edges="448736027#0 448736027#2 448736027#3 223300795#5 23321898#0 23321898#2"/>
    </vehicle>
    <vehicle id="flow3.8" depart="24.00">
        <route edges="449284320#0 449284320#1 449284320#2 449284320#3 121815661#0 121815661#1"/>
    </vehicle>
    <vehicle id="flow4.8" depart="24.00">
        <route edges="11490172#0 11490172#2 447281176 38619574 447281177#0 447281177#1 447281177#2 447281177#3"/>
    </vehicle>
    <vehicle id="flow5.8" depart="24.00">
        <route edges="446594494#0 7981319#0 7981319#2"/>
    </vehicle>
    <vehicle id="flow6.8" depart="24.00">
        <route edges="23321897#0 23321897#1 23321897#2 223300796"/>
    </vehicle>
    <vehicle id="flow7.8" depart="24.00">
        <route edges="449284320#0 449284320#1 20891186#0 20891186#1 20891186#2"/>
    </vehicle>
    <vehicle id="flow8.8" depart="24.00">
        <route edges="11490172#0 11490172#2 447281176 108852607 8000232#2"/>
    </vehicle>
    <vehicle id="flow9.8" depart="24.00">
        <route edges="449284320#0 449284320#1 20891186#0 20891194#1 20891194#2 20891194#3"/>
    </vehicle>
    <vehicle id="flow0.9" depart="27.00">
        <route edges="223300795#0 223300795#4 223300795#5 223300795#6 121815695#0 121815695#1 121815695#2-AddedOnRampEdge 121815695#2 121815695#3 121815695#4"/>
    </vehicle>
    <vehicle id="flow1.9" depart="27.00">
        <route edges="446594494#0 446594494#2 121815662#0 121815662#1 121815662#2 407593363#0 407593363#1"/>
    </vehicle>
    <vehicle id="flow10.9" depart="27.00">
        <route edges="11490172#0 11490172#2 39334084 448533599#0 448533599#1 448533599#2 448533599#3 448533599#4 448533599#5"/>
    </vehicle>
    <vehicle id="flow11.9" depart="27.00">
        <route edges="449284320#0 449284320#1 449284320#2 41078120#0 121815695#1 121815695#2-AddedOnRampEdge 121815695#2 121815695#3 121815695#4"/>
    </vehicle>
    <vehicle id="flow2.9" depart="27.00">
        <route edges="448736027#0 448736027#2 448736027#3 223300795#5 23321898#0 23321898#2"/>
    </vehicle>
    <vehicle id="flow3.9" depart="27.00">
        <route edges="449284320#0 449284320#1 449284320#2 449284320#3 121815661#0 121815661#1"/>
    </vehicle>
    <vehicle id="flow4.9" depart="27.00">
        <route edges="11490172#0 11490172#2 447281176 38619574 447281177#0 447281177#1 447281177#2 447281177#3"/>
    </vehicle>
    <vehicle id="flow5.9" depart="27.00">
        <route edges="446594494#0 7981319#0 7981319#2"/>
    </vehicle>
    <vehicle id="flow6.9" depart="27.00">
        <route edges="23321897#0 23321897#1 23321897#2 223300796"/>
    </vehicle>
    <vehicle id="flow7.9" depart="27.00">
        <route edges="449284320#0 449284320#1 20891186#0 20891186#1 20891186#2"/>
    </vehicle>
    <vehicle id="flow8.9" depart="27.00">
        <route edges="11490172#0 11490172#2 447281176 108852607 8000232#2"/>
    </vehicle>
    <vehicle id="flow9.9" depart="27.00">
        <route edges="449284320#0 449284320#1 20891186#0 20891194#1 20891194#2 20891194#3"/>
    </vehicle>
    <vehicle id="flow0.10" depart="30.00">
        <route edges="223300795#0 223300795#4 223300795#5 223300795#6 121815695#0 121815695#1 121815695#2-AddedOnRampEdge 121815695#2 121815695#3 121815695#4"/>
    </vehicle>
    <vehicle id="flow1.10" depart="30.00">
        <route edges="446594494#0 446594494#2 121815662#0 121815662#1 121815662#2 407593363#0 407593363#1"/>
    </vehicle>
    <vehicle id="flow10.10" depart="30.00">
        <route edges="11490172#0 11490172#2 39334084 448533599#0 448533599#1 448533599#2 448533599#3 448533599#4 448533599#5"/>
    </vehicle>
    <vehicle id="flow11.10" depart="30.00">
        <route edges="449284320#0 449284320#1 449284320#2 41078120#0 121815695#1 121815695#2-AddedOnRampEdge 121815695#2 121815695#3 121815695#4"/>
    </vehicle>
    <vehicle id="flow2.10" depart="30.00">
        <route edges="448736027#0 448736027#2 448736027#3 223300795#5 23321898#0 23321898#2"/>
    </vehicle>
    <vehicle id="flow3.10" depart="30.00">
        <route edges="449284320#0 449284320#1 449284320#2 449284320#3 121815661#0 121815661#1"/>
    </vehicle>
    <vehicle id="flow4.10" depart="30.00">
        <route edges="11490172#0 11490172#2 447281176 38619574 447281177#0 447281177#1 447281177#2 447281177#3"/>
    </vehicle>
    <vehicle id="flow5.10" depart="30.00">
        <route edges="446594494#0 7981319#0 7981319#2"/>
    </vehicle>
    <vehicle id="flow6.10" depart="30.00">
        <route edges="23321897#0 23321897#1 23321897#2 223300796"/>
    </vehicle>
    <vehicle id="flow7.10" depart="30.00">
        <route edges="449284320#0 449284320#1 20891186#0 20891186#1 20891186#2"/>
    </vehicle>
    <vehicle id="flow8.10" depart="30.00">
        <route edges="11490172#0 11490172#2 447281176 108852607 8000232#2"/>
    </vehicle>
    <vehicle id="flow9.10" depart="30.00">
        <route edges="449284320#0 449284320#1 20891186#0 20891194#1 20891194#2 20891194#3"/>
    </vehicle>
    <vehicle id="flow0.11" depart="33.00">
        <route edges="223300795#0 223300795#4 223300795#5 223300795#6 121815695#0 121815695#1 121815695#2-AddedOnRampEdge 121815695#2 121815695#3 121815695#4"/>
    </vehicle>
    <vehicle id="flow1.11" depart="33.00">
        <route edges="446594494#0 446594494#2 121815662#0 121815662#1 121815662#2 407593363#0 407593363#1"/>
    </vehicle>
    <vehicle id="flow10.11" depart="33.00">
        <route edges="11490172#0 11490172#2 39334084 448533599#0 448533599#1 448533599#2 448533599#3 448533599#4 448533599#5"/>
    </vehicle>
    <vehicle id="flow11.11" depart="33.00">
        <route edges="449284320#0 449284320#1 449284320#2 41078120#0 121815695#1 121815695#2-AddedOnRampEdge 121815695#2 121815695#3 121815695#4"/>
    </vehicle>
    <vehicle id="flow2.11" depart="33.00">
        <route edges="448736027#0 448736027#2 448736027#3 223300795#5 23321898#0 23321898#2"/>
    </vehicle>
    <vehicle id="flow3.11" depart="33.00">
        <route edges="449284320#0 449284320#1 449284320#2 449284320#3 121815661#0 121815661#1"/>
    </vehicle>
    <vehicle id="flow4.11" depart="33.00">
        <route edges="11490172#0 11490172#2 447281176 38619574 447281177#0 447281177#1 447281177#2 447281177#3"/>
    </vehicle>
    <vehicle id="flow5.11" depart="33.00">
        <route edges="446594494#0 7981319#0 7981319#2"/>
    </vehicle>
    <vehicle id="flow6.11" depart="33.00">
        <route edges="23321897#0 23321897#1 23321897#2 223300796"/>
    </vehicle>
    <vehicle id="flow7.11" depart="33.00">
        <route edges="449284320#0 449284320#1 20891186#0 20891186#1 20891186#2"/>
    </vehicle>
    <vehicle id="flow8.11" depart="33.00">
        <route edges="11490172#0 11490172#2 447281176 108852607 8000232#2"/>
    </vehicle>
    <vehicle id="flow9.11" depart="33.00">
        <route edges="449284320#0 449284320#1 20891186#0 20891194#1 20891194#2 20891194#3"/>
    </vehicle>
    <vehicle id="flow0.12" depart="36.00">
        <route edges="223300795#0 223300795#4 223300795#5 223300795#6 121815695#0 121815695#1 121815695#2-AddedOnRampEdge 121815695#2 121815695#3 121815695#4"/>
    </vehicle>
    <vehicle id="flow1.12" depart="36.00">
        <route edges="446594494#0 446594494#2 121815662#0 121815662#1 121815662#2 407593363#0 407593363#1"/>
    </vehicle>
    <vehicle id="flow10.12" depart="36.00">
        <route edges="11490172#0 11490172#2 39334084 448533599#0 448533599#1 448533599#2 448533599#3 448533599#4 448533599#5"/>
    </vehicle>
    <vehicle id="flow11.12" depart="36.00">
        <route edges="449284320#0 449284320#1 449284320#2 41078120#0 121815695#1 121815695#2-AddedOnRampEdge 121815695#2 121815695#3 121815695#4"/>
    </vehicle>
    <vehicle id="flow2.12" depart="36.00">
        <route edges="448736027#0 448736027#2 448736027#3 223300795#5 23321898#0 23321898#2"/>
    </vehicle>
    <vehicle id="flow3.12" depart="36.00">
        <route edges="449284320#0 449284320#1 449284320#2 449284320#3 121815661#0 121815661#1"/>
    </vehicle>
    <vehicle id="flow4.12" depart="36.00">
        <route edges="11490172#0 11490172#2 447281176 38619574 447281177#0 447281177#1 447281177#2 447281177#3"/>
    </vehicle>
    <vehicle id="flow5.12" depart="36.00">
        <route edges="446594494#0 7981319#0 7981319#2"/>
    </vehicle>
    <vehicle id="flow6.12" depart="36.00">
        <route edges="23321897#0 23321897#1 23321897#2 223300796"/>
    </vehicle>
    <vehicle id="flow7.12" depart="36.00">
        <route edges="449284320#0 449284320#1 20891186#0 20891186#1 20891186#2"/>
    </vehicle>
    <vehicle id="flow8.12" depart="36.00">
        <route edges="11490172#0 11490172#2 447281176 108852607 8000232#2"/>
    </vehicle>
    <vehicle id="flow9.12" depart="36.00">
        <route edges="449284320#0 449284320#1 20891186#0 20891194#1 20891194#2 20891194#3"/>
    </vehicle>
    <vehicle id="flow0.13" depart="39.00">
        <route edges="223300795#0 223300795#4 223300795#5 223300795#6 121815695#0 121815695#1 121815695#2-AddedOnRampEdge 121815695#2 121815695#3 121815695#4"/>
    </vehicle>
    <vehicle id="flow1.13" depart="39.00">
        <route edges="446594494#0 446594494#2 121815662#0 121815662#1 121815662#2 407593363#0 407593363#1"/>
    </vehicle>
    <vehicle id="flow10.13" depart="39.00">
        <route edges="11490172#0 11490172#2 39334084 448533599#0 448533599#1 448533599#2 448533599#3 448533599#4 448533599#5"/>
    </vehicle>
    <vehicle id="flow11.13" depart="39.00">
        <route edges="449284320#0 449284320#1 449284320#2 41078120#0 121815695#1 121815695#2-AddedOnRampEdge 121815695#2 121815695#3 121815695#4"/>
    </vehicle>
    <vehicle id="flow2.13" depart="39.00">
        <route edges="448736027#0 448736027#2 448736027#3 223300795#5 23321898#0 23321898#2"/>
    </vehicle>
    <vehicle id="flow3.13" depart="39.00">
        <route edges="449284320#0 449284320#1 449284320#2 449284320#3 121815661#0 121815661#1"/>
    </vehicle>
    <vehicle id="flow4.13" depart="39.00">
        <route edges="11490172#0 11490172#2 447281176 38619574 447281177#0 447281177#1 447281177#2 447281177#3"/>
    </vehicle>
    <vehicle id="flow5.13" depart="39.00">
        <route edges="446594494#0 7981319#0 7981319#2"/>
    </vehicle>
    <vehicle id="flow6.13" depart="39.00">
        <route edges="23321897#0 23321897#1 23321897#2 223300796"/>
    </vehicle>
    <vehicle id="flow7.13" depart="39.00">
        <route edges="449284320#0 449284320#1 20891186#0 20891186#1 20891186#2"/>
    </vehicle>
    <vehicle id="flow8.13" depart="39.00">
        <route edges="11490172#0 11490172#2 447281176 108852607 8000232#2"/>
    </vehicle>
    <vehicle id="flow9.13" depart="39.00">
        <route edges="449284320#0 449284320#1 20891186#0 20891194#1 20891194#2 20891194#3"/>
    </vehicle>
    <vehicle id="flow0.14" depart="42.00">
        <route edges="223300795#0 223300795#4 223300795#5 223300795#6 121815695#0 121815695#1 121815695#2-AddedOnRampEdge 121815695#2 121815695#3 121815695#4"/>
    </vehicle>
    <vehicle id="flow1.14" depart="42.00">
        <route edges="446594494#0 446594494#2 121815662#0 121815662#1 121815662#2 407593363#0 407593363#1"/>
    </vehicle>
    <vehicle id="flow10.14" depart="42.00">
        <route edges="11490172#0 11490172#2 39334084 448533599#0 448533599#1 448533599#2 448533599#3 448533599#4 448533599#5"/>
    </vehicle>
    <vehicle id="flow11.14" depart="42.00">
        <route edges="449284320#0 449284320#1 449284320#2 41078120#0 121815695#1 121815695#2-AddedOnRampEdge 121815695#2 121815695#3 121815695#4"/>
    </vehicle>
    <vehicle id="flow2.14" depart="42.00">
        <route edges="448736027#0 448736027#2 448736027#3 223300795#5 23321898#0 23321898#2"/>
    </vehicle>
    <vehicle id="flow3.14" depart="42.00">
        <route edges="449284320#0 449284320#1 449284320#2 449284320#3 121815661#0 121815661#1"/>
    </vehicle>
    <vehicle id="flow4.14" depart="42.00">
        <route edges="11490172#0 11490172#2 447281176 38619574 447281177#0 447281177#1 447281177#2 447281177#3"/>
    </vehicle>
    <vehicle id="flow5.14" depart="42.00">
        <route edges="446594494#0 7981319#0 7981319#2"/>
    </vehicle>
    <vehicle id="flow6.14" depart="42.00">
        <route edges="23321897#0 23321897#1 23321897#2 223300796"/>
    </vehicle>
    <vehicle id="flow7.14" depart="42.00">
        <route edges="449284320#0 449284320#1 20891186#0 20891186#1 20891186#2"/>
    </vehicle>
    <vehicle id="flow8.14" depart="42.00">
        <route edges="11490172#0 11490172#2 447281176 108852607 8000232#2"/>
    </vehicle>
    <vehicle id="flow9.14" depart="42.00">
        <route edges="449284320#0 449284320#1 20891186#0 20891194#1 20891194#2 20891194#3"/>
    </vehicle>
    <vehicle id="flow0.15" depart="45.00">
        <route edges="223300795#0 223300795#4 223300795#5 223300795#6 121815695#0 121815695#1 121815695#2-AddedOnRampEdge 121815695#2 121815695#3 121815695#4"/>
    </vehicle>
    <vehicle id="flow1.15" depart="45.00">