<?xml version="1.0" encoding="UTF-8"?>

<!-- generated on Thu Jan 11 13:28:35 2018 by SUMO duarouter Version 0.30.0
<?xml version="1.0" encoding="UTF-8"?>

<configuration xmlns:xsi="http://www.w3.org/2001/XMLSchema-instance" xsi:noNamespaceSchemaLocation="http://sumo.dlr.de/xsd/duarouterConfiguration.xsd">

    <input>
        <net-file value="/home/alexis/git/CA_System/src/networks/scenario1/stgo.net.xml"/>
        <trip-files value="/home/alexis/git/CA_System/src/networks/scenario1/trips.trips.xml"/>
    </input>

    <output>
        <output-file value="/home/alexis/git/CA_System/src/networks/scenario1/stgo.rou.xml"/>
    </output>

    <processing>
        <ignore-errors value="true"/>
    </processing>

    <time>
        <begin value="0"/>
        <end value="3600"/>
    </time>

    <report>
        <verbose value="true"/>
    </report>

</configuration>
-->

<routes xmlns:xsi="http://www.w3.org/2001/XMLSchema-instance" xsi:noNamespaceSchemaLocation="http://sumo.dlr.de/xsd/routes_file.xsd">
    <vehicle id="0" depart="0.00">
        <route edges="23404794 185125704#1 366862512#7 449283360#2 449283360#3 449283361 449284320#0 449284320#1 449284320#2 41078120#0 41078120#1 121815695#1 121815695#2 121815695#3 121815695#4 121815695#5 121815695#6 215936723#0 215936723#1 447597468#0 447597468#1 447597468#2 447597468#3 447597468#4 447597468#5 170945231 294707644 39928380 450505893#0 450505893#1 146983134#0 146983134#1 146983134#2 146983134#3 450426174 41203240 207815701#0 207815701#1 207815701#2 207815701#3 23389989#0 23389989#1"/>
    </vehicle>
    <vehicle id="1" depart="2.00">
        <route edges="42118505 108852607 8000232#2 415340023#0 415340023#1 415340023#2 415340023#3 415340023#4 415340023#5 415340023#6 415340023#7 -448515627#2 -448515627#1 -448515627#0 -41764798#5 -41764798#4 -41764798#3 -41764798#2 -41764798#1 -41764798#0 13858323#0 13858323#1 13858323#2 13858323#3 447077625#4 -24444335#1"/>
    </vehicle>
    <vehicle id="2" depart="4.00">
        <route edges="207815701#0 207815701#1 207815701#2 207815701#3 23389989#0 23389989#1 23389989#2 8001091 544401976#0 544401976#1 544401976#2 544401976#3 544401976#4 544401976#5 544401976#6 146983132#0 146983132#1 146983132#2 7981159#0 7981159#1 14584727 170945231 294707644 39928380 450505893#0 450505893#1 114077388#0 114077388#1 114077388#2 114077388#3 114077388#4 114077388#5 114077388#6 114077388#7 114077388#8 114077388#9 114077388#10 114077388#11 114077388#12 114077388#13 114077388#14 114077388#15 114077388#16 114077388#17 114077388#18 114077388#19 43706053#0 43706053#1 43706053#2 35670955#0 35670955#1 232166777#7 232166777#8 232166777#9"/>
    </vehicle>
    <vehicle id="3" depart="6.00">
        <route edges="483731558#0 483731558#1 208159321#0 445511087#3 331303477#2 331303477#3 331303477#4 331303477#5 331303477#6 32840250#0 32840250#1 13920356#0 13920356#1 13920356#2 83638608#0 83638608#1 83638608#2 32841147#3 32841147#4 32841147#5 189256411#0 189256411#1 189256411#2 189256411#3 189256411#4 189256411#5 448732497#0 448732497#1 444936869#1 300267261#0 300267261#1 300267261#2 300267261#3 300267261#4 223300795#0 223300795#1 223300795#2 223300795#3 223300795#4 223300795#5 223300795#6 223300795#7 223300795#8 223300795#9 223300795#10 223300795#11 223300795#12 121815695#0 121815695#1 121815695#2 121815695#3 121815695#4 121815695#5 121815695#6 215936723#0 215936723#1 447597468#0 447597468#1 447597468#2 447597468#3 447597468#4 447597468#5 170945231 294707644 39928380 450505893#0 450505893#1 201704217#0 201704217#1 201704217#2 449631293 453344277#0 453344277#1 442113157 178547498#0"/>
    </vehicle>
    <vehicle id="4" depart="8.00">
        <route edges="23393703 441460018 146983148 33101067 450504155 450504154 39333617#0 39333617#1 448373166#0 448373166#1 448373166#2 450504177#0 450504177#1 450504177#2 450504177#3 450504177#4 450504177#5 41076228#0 41076228#1 544370788 26103710 38621540#0 448370824#3 448370824#4 448370824#5 448370824#6 448370824#7 448370824#8 448370824#9 146983133#0 146983133#1 146983133#2 -509474852 -509474851 -444825663#1 -444825663#0 -23389989#3 8001091 544401976#0 544401976#1 544401976#2 544401976#3 544401976#4 544401976#5 544401976#6 146983132#0 146983132#1 146983132#2 7981159#0 7981159#1 14584727 146983135#0 146983135#1 146983135#2 13876888"/>
    </vehicle>
    <vehicle id="5" depart="10.00">
        <route edges="108852568#1 446606608#0 446606608#1 250118215#0 250118215#1 250118215#2 250118215#3 121747190#1 121747182#0 121747182#1 447077625#0 447077625#1 447077625#2 447077625#3 447077625#4 -24444335#1 -24444335#0 193600004#4"/>
    </vehicle>
    <vehicle id="6" depart="12.00">
        <route edges="447774594#8 293727759#2 293727759#3 293727759#4 449283226#4 449283226#5 449283359#0 23401446#15 23401446#16 23401446#17 23401446#18 23401446#19 23401446#20 32865023#5 32865023#6 32865023#7 32865023#8 32865023#9 242669436#0 242669436#1 41764798#4 41764798#5 448515627#0 448515627#1 448515627#2 415340023#8 415340023#9 215936722#0 215936722#1 442096681#0 20838832 -20838832"/>
    </vehicle>
    <vehicle id="7" depart="14.00">
        <route edges="23401444#5 156898441#3 108852603#0 108852603#1 108852603#2 108852603#3 108852603#4 108852603#5 108852603#6 108852603#7 448217172 448217173 242669435#0 242669435#1 242669435#2 242669436#0 242669436#1 -41764798#3 -41764798#2 -41764798#1 -41764798#0 -448396052#2 -448396052#1 -448396052#0 448396051 108852599 108852596 108852568#0 108852568#1 446606608#0 446606608#1 250118215#0 250118215#1 250118215#2 250118215#3 250118215#4 447345893#0 447345893#1 447345893#2 75832168#0"/>
    </vehicle>
    <vehicle id="8" depart="16.00">
        <route edges="-441333259#1 -441333259#0 447744764 33101449#0 33101449#1 23400754#1 23400754#2 482134480#1 519185503#0 519185503#1 300267261#0 300267261#1 300267261#2 300267261#3 300267261#4 223300795#0 223300795#1 223300795#2 223300795#3 8000033 355547661 448518899#0"/>
    </vehicle>
    <vehicle id="9" depart="18.00">
        <route edges="23401447#10 157032684#11 157032684#12 157032684#13 157032684#14 449283227#3 449283227#4 32865023#0 32865023#1 32865023#2 32865023#3 32865023#4 23401446#21 23401446#22 23401446#23 23401446#24 448521324#1 448180370 448396053#1 -448180369 185139146#0 185139146#1 185138821#3 85536703#1 185138820#0"/>
    </vehicle>
    <vehicle id="10" depart="20.00">
        <route edges="13858385#16 196178587#2 14041293#2 232166777#2 232166777#3 232166777#4 232166777#5 232166777#6 232166777#7 232166777#8 232166777#9 232166777#10 232166777#11 232166777#12 232166777#13 108852616 108852595 92361438#0 92361438#1 92361438#2 92361438#3 92361438#4 92361438#5 92361438#6 92361438#7 92361438#8 92361438#9 13858411#0 23321898#4 23404793#1 23404793#2 477783978#0 477783978#1 477783978#2 477783978#3 477783978#4 477783978#5 477783978#6"/>
    </vehicle>
    <vehicle id="11" depart="22.00">
        <route edges="114077388#16 114077388#17 232166777#12 232166777#13 108852616 108852595 92361438#0 92361438#1 92361438#2 92361438#3 92361438#4 92361438#5 92361438#6 92361438#7 92361438#8 92361438#9 13858411#0 13858411#1 13858411#2 13858411#3 13858411#4 13858411#5 13858411#6 370353651 23400434#0 23400434#1 257623914 519185500 23400435#0 23400435#1 32839979 447744765#2 445519010#0 445519010#1 445519010#2 445530544#0 445530544#1 445530544#2 445530544#3 445530544#4 445545294#0 445545294#1 445545294#2 32841232#0"/>
    </vehicle>
    <vehicle id="12" depart="24.00">
        <route edges="23401446#1 23401446#2 23401446#3 23401442#2 23401442#3 252558982#3 252558982#4 252558982#5 252558982#6 208159358 32841147#1 32841147#2 32841147#3 32841147#4 32841147#5 189256411#0 189256411#1 189256411#2 189256411#3 189256411#4 189256411#5 448732497#0 448732497#1 444936869#1 300267261#0 300267261#1 300267261#2 300267261#3 300267261#4 223300795#0 223300795#1 223300795#2 223300795#3 223300795#4 223300795#5 223300795#6 223300795#7 223300795#8 223300795#9 223300795#10 223300795#11 223300795#12 121815695#0 121815695#1 121815695#2 121815695#3 121815695#4 121815695#5 121815695#6 215936723#0 215936723#1 447597468#0 447597468#1 447597468#2 447597468#3 447597468#4"/>
    </vehicle>
    <vehicle id="13" depart="26.00">
        <route edges="8001055#13 8001055#14 8001055#15 446606610#0 446606610#1 187874115#0 187874115#1 187874115#2 187874115#3 187874115#4 187874115#5 187874115#6 187874115#7 187874115#8 250118218 447075645#0"/>
    </vehicle>
    <vehicle id="14" depart="28.00">
        <route edges="448736027#0 448736027#1 448736027#2 448736027#3 448736027#4 448736027#5 448736027#6 448736027#7 448736027#8 407593363#0 407593363#1 407593363#2 407593363#3 407593363#4 407593363#5 407593363#6 355547661 448518899#0 448518899#1 355547660#0 355547660#1 355547660#2 355547660#3 355547660#4 448388092#2 448388092#3 44061475 450457592#0 450457592#1 450457592#2 450457592#3 450457592#4 450457592#5 450457592#6 450457592#7 450457592#8 449458723 442348158#0 442348158#1 23401446#2 23401446#3 23401446#4"/>
    </vehicle>
    <vehicle id="15" depart="30.00">
        <route edges="92361438#3 92361438#4 447748358#0 447748358#1 447748358#2 447748358#3 447748358#4 447748358#5 448564072#0 448564072#1 23321627 41203238#0 41203238#1 518061196 518061197#0 518061197#1 13858477 448211149 444825660#0 444825660#1 444825660#2 544401977 444825661#0 444825661#1 444825661#2 444825658#0 38956363#1"/>
    </vehicle>
    <vehicle id="16" depart="32.00">
        <route edges="197841801 20841915#6 20841915#7 -197841802 207815699#9 28967932 146983133#1 146983133#2 -509474852 -509474851 -444825663#1 -444825663#0 444825661#0 444825661#1 444825661#2 444825658#0 444825658#1 444825658#2 11490172#0 11490172#1 11490172#2 11490172#3 11490172#4 11490172#5 11490172#6 11490172#7 447281176 42118505 108852607 8000232#2 415340023#0 415340023#1 415340023#2 415340023#3 415340023#4 415340023#5 415340023#6 415340023#7 -448515627#2 -448515627#1 -448515627#0 -41764798#5 -41764798#4 -41764798#3 -41764798#2 -41764798#1 -41764798#0 448396053#0 448396053#1 448396053#2 448396053#3 448374128"/>
    </vehicle>
    <vehicle id="17" depart="34.00">
        <route edges="26103737 277736617 149899946 149899994 7991807#5 325052236#0 325052236#1 325052236#2 325052236#3 325052236#4 325052236#5 325052236#6 325052236#7 450504382#0 450504382#1 450504382#2 448736027#0 448736027#1 448736027#2 448736027#3 448736027#4 448736027#5 448736027#6 448736027#7 448736027#8 407593363#0 407593363#1 407593363#2 407593363#3 407593363#4 407593363#5 407593363#6 355547661 448518899#0 448518899#1 355547660#0 355547660#1 355547660#2 355547660#3 355547660#4 448388092#2 448388092#3 44061475 450457592#0 450457592#1 450457592#2 450457592#3 450457592#4 450457592#5 450457592#6 450457592#7 450457592#8 449458723 442348158#0 442348158#1 23401446#2 23401446#3 23401442#2 23401442#3"/>
    </vehicle>
    <vehicle id="18" depart="36.00">
        <route edges="-23389989#4 444825661#0 444825661#1 444825661#2 444825658#0 444825658#1 450426777#1 450426777#2 450426777#3 450426777#4 450426777#5 450426777#6 450426777#7 450426777#8 450426777#9 450426777#10 450426777#11 450426777#12 450426777#13 450426777#14 13858427 149899927#0 149899927#1 449552152#1 449552152#2 449552152#3 449552152#4 149899988#0"/>
    </vehicle>
    <vehicle id="19" depart="38.00">
        <route edges="149899957 450426788#6 450426788#7 450426788#8 450426788#9 448373171#2 149899927#5 149899927#6 443094736#0 443094736#1 48331960 450504156#4 450504156#5 450504156#6 450504156#7 450504156#8 450504156#9 450504156#10 450504156#11 450504156#12 450504156#13 278765389#0 278765389#1 208499130 447744765#0 447744765#1 447744765#2 445519010#0 445519010#1 445519010#2 445530544#0 445530544#1"/>
    </vehicle>
    <vehicle id="20" depart="40.00">
        <route edges="300267261#4 223300795#0 223300795#1 223300795#2 223300795#3 8000033 355547661 448518899#0 448518899#1 355547660#0 355547660#1 355547660#2 355547660#3 355547660#4 355547660#5 355547660#6 355547660#7 300267262#0 300267262#1 278765389#0 278765389#1 208499130 447744765#0 447744765#1 447744765#2 445519010#0 445519010#1 445519010#2 445530544#0 8000909"/>
    </vehicle>
    <vehicle id="22" depart="44.00">
        <route edges="121815663#0 121815663#1 121815663#2 446594494#0 446594494#1 446594494#2 446594494#3 446594494#4 446594494#5 7981319#0 151097617#0 151097617#1 447281176 42118505 38619574 447281177#0 447281177#1 447281177#2 447281177#3 447281177#4 447281177#5 92361438#6 92361438#7 92361438#8 92361438#9"/>
    </vehicle>
    <vehicle id="23" depart="46.00">
        <route edges="448533599#0 448533599#1 448533599#2 448533599#3 448533599#4 448736027#8 407593364 223300795#11 223300795#12 121815695#0 121815695#1 121815695#2 121815695#3 121815695#4 121815695#5 121815695#6 -448515627#5 448515627#5 60442721 13858321#0 13858321#1 -47531551#2 -47531551#1"/>
    </vehicle>
    <vehicle id="24" depart="48.00">
        <route edges="448396053#4 448396053#5 448396053#6 448396053#7 157032684#8 157032684#9 157032684#10 157032684#11 157032684#12 157032684#13 157032684#14 449283227#3 449283227#4 193600004#0 193600004#1 193600004#2 193600004#3 193600004#4 193600004#5 193600004#6 193600004#7 193600004#8 448721017#3 448721017#4 447077625#1"/>
    </vehicle>
    <vehicle id="25" depart="50.00">
        <route edges="121815630#5 121815630#6 121815630#7 121815630#8 121815630#9 121815630#10 121815630#11 294707645 446595216 41165750#0 41165750#1 41165750#2 23635124#0 23635124#1 23635124#2 38956363#0 38956363#1"/>
    </vehicle>
    <vehicle id="26" depart="52.00">
        <route edges="13870106#2 22372805 13895297#5 13895297#6 121748552#0 121748552#1 121748552#2 121748552#3 366862517#0 366862517#1 366862517#2 366862517#3 366862517#4 447075646#0 447075646#1 447075646#2 447075646#3 366862512#0 366862512#1 366862512#2 366862512#3 366862512#4 366862512#5 157032684#3 157032684#4 157032684#5 157032684#6 157032684#7 448396053#8 448396053#9 448396053#10 448396053#11 448396053#12 448396053#13 448396053#14 448396053#15 448396053#16 448396053#17 448396053#18 448396053#19 448396053#20 448396053#21 450432644#14 450432644#15"/>
    </vehicle>
    <vehicle id="27" depart="54.00">
        <route edges="450426777#8 450426777#9 450426777#10 450426777#11 450426777#12 450426777#13 450426777#14 13858427 149899927#0 149899927#1 149899927#2 443083829#1 279126823#0 262442964#0"/>
    </vehicle>
    <vehicle id="28" depart="56.00">
        <route edges="185138820#2 185138820#3 41764798#1 41764798#2 41764798#3 41764798#4 41764798#5 448515627#0 448515627#1 448515627#2 415340023#8 415340023#9 215936722#0 215936722#1 121815630#2 121815630#3 121815630#4 121815630#5 121815630#6 121815630#7 121815630#8 121815630#9 121815630#10 121815630#11 294707645 446595216 41165750#0 41165750#1 544401976#6 146983132#0 146983132#1 146983132#2 7981159#0 37356524#0"/>
    </vehicle>
    <vehicle id="29" depart="58.00">
        <route edges="13870106#8 13870106#9 446607094#0 446607094#1 449485950"/>
    </vehicle>
    <vehicle id="30" depart="60.00">
        <route edges="7981160#2 449552152#4 458165979 41076228#0 41076228#1 544370788 26103710 38621540#0 448370824#3 448370824#4 448370824#5 448370824#6 448370824#7 448370824#8 448370824#9 146983133#0 146983133#1 146983133#2 -509474852 -509474851 -444825663#1 -444825663#0 -23389989#3 8001091 544401976#0 544401976#1 544401976#2 544401976#3 544401976#4 544401976#5 544401976#6 146983132#0 146983132#1 146983132#2 7981159#0 7981159#1 14584727 170945231 294707644 39928380 450505893#0 450505893#1 201704217#0 201704217#1 201704217#2 449631293 453344277#0 453344277#1 442113157 178547498#0 178547498#1 178547498#2 314247299 178547499#1 178547499#2"/>
    </vehicle>
    <vehicle id="32" depart="64.00">
        <route edges="448388093#0 38619761#4 175111023#1 175111023#2 175111023#3 175111023#4 447594410#0 447594410#1 447594410#2 175111020#0 175111020#1 175111020#2 175111020#3 175111020#4 175111020#5 175111020#6 175111020#7 175111020#8 175111020#9 175111020#10 175111020#11 175111020#12 175111020#13 175111020#14 175111020#15 11490172#6 11490172#7 447281176 42118505 108852607 8000232#2 415340023#0 415340023#1 415340023#2 415340023#3 415340023#4 415340023#5 415340023#6 415340023#7 415340023#8 415340023#9 215936722#0 215936722#1 442096681#0 442096681#1 180567954#0 180567954#1 180567954#2 180567954#3 180567954#4 196178587#0 196178587#1 13858385#17 13858385#18 13858385#19 13858385#20 13858385#21 13858385#22"/>
    </vehicle>
    <vehicle id="33" depart="66.00">
        <route edges="321238225 144917233#2 450504153 146983148 450504156#0 450504156#1 450504156#2 450504156#3 450504156#4 450504156#5 450504156#6 450504156#7 450504156#8 33100732 462225138 462225140 175111023#0 175111023#1 175111023#2 175111023#3 175111023#4 447594410#0 447594410#1 447594410#2 175111020#0 175111020#1 175111020#2 175111020#3 175111020#4 175111020#5 175111020#6 175111020#7 175111020#8"/>
    </vehicle>
    <vehicle id="34" depart="68.00">
        <route edges="297475576#0 297475576#1 442129507#0 442129507#1 442129507#2 442129507#3 442129507#4 448515627#5 60442721 13858321#0 13858321#1 -47531551#2 -47531551#1 47531551#1"/>
    </vehicle>
    <vehicle id="35" depart="70.00">
        <route edges="39505602#14 39505602#15 39505602#16 39505602#17 39505602#18 207815699#0 207815699#1 207815699#2"/>
    </vehicle>
    <vehicle id="36" depart="72.00">
        <route edges="278765387#5 278765387#6 278765387#7 21189483#0 21189483#1 21189483#2 21189483#3 21189483#4 447593876#0 447593876#1 447593876#2 447593876#3 447594410#0 447594410#1 447594410#2 175111020#0 175111020#1 175111020#2 175111020#3 175111020#4 175111020#5 175111020#6 175111020#7 175111020#8 175111020#9 175111020#10 175111020#11 175111020#12 175111020#13 175111020#14 175111020#15 11490172#6 11490172#7 447281176 42118505 108852607 8000232#2 415340023#0 415340023#1 415340023#2 415340023#3 415340023#4 415340023#5 415340023#6 415340023#7 -448515627#2 -448515627#1 -448515627#0 -41764798#5 23322356#8 215339436#4 215339436#5"/>
    </vehicle>
    <vehicle id="37" depart="74.00">
        <route edges="442511193#1 448573382#0 448573382#1 448573382#2 331303477#1 331303477#2 331303477#3 331303477#4 331303477#5 331303477#6 32840250#0 32840250#1 13920356#0 13920356#1 13920356#2 13920356#3 338566197 156898441#0 156898441#1 156898441#2 156898441#3 108852603#0 108852603#1 108852603#2 108852603#3 108852603#4 108852603#5 108852603#6 108852603#7 448217172 448217173 242669435#0 157032684#5 157032684#6 157032684#7 157032684#8 157032684#9 157032684#10 157032684#11 157032684#12 157032684#13 157032684#14 449283227#3 449283227#4 193600004#0 193600004#1 193600004#2 193600004#3 193600004#4 193600004#5 193600004#6 193600004#7 193600004#8 193600004#9 447077624#0 447077624#1"/>
    </vehicle>
    <vehicle id="38" depart="76.00">
        <route edges="23321902#1 37272074 442129507#3 442129507#4 448515627#5 60442721 446594494#4 446594494#5 446594494#6 121815662#0 121815662#1 121815662#2 407593363#0 407593363#1 407593363#2 407593363#3 407593363#4 407593363#5 407593363#6 355547661 448518899#0 448518899#1 355547660#0 355547660#1 355547660#2 355547660#3 355547660#4 355547660#5 355547660#6 355547660#7 300267262#0 300267262#1 278765389#0 278765389#1 208499130 447744765#0 447744765#1 447744765#2 445519010#0 445519010#1 445519010#2 445530544#0 445530544#1 445530544#2 445530544#3 445530544#4 445545294#0 445545294#1 445545294#2 445545294#3 445545294#4 445545294#5 32840493#0 32840493#1 41106830"/>
    </vehicle>
    <vehicle id="39" depart="78.00">
        <route edges="23321897#0 23321897#1 23321897#2 23321897#3 449284320#1 449284320#2 41078120#0 41078120#1 121815695#1 121815695#2 23321634 447281177#0 447281177#1"/>
    </vehicle>
    <vehicle id="41" depart="82.00">
        <route edges="24444473#10 24444473#11 448521325#1 447077625#5 447077625#6 242669472#0 242669472#1 242669472#2 242669472#3 242669472#4 242669472#5 242669472#6 242669472#7 242669472#8 242669472#9 242669472#10 447774594#10 447774594#11"/>
    </vehicle>
    <vehicle id="42" depart="84.00">
        <route edges="32865023#8 32865023#9 242669436#0 242669436#1 242669436#2 242669436#3 242669436#4 250118216#0 -29213025"/>
    </vehicle>
    <vehicle id="43" depart="86.00">
        <route edges="448518899#1 355547660#0 355547660#1 355547660#2 355547660#3 355547660#4 448388092#2 448388092#3 300267261#1 300267261#2 300267261#3 300267261#4 223300795#0 223300795#1 223300795#2 223300795#3 8000033 266815115"/>
    </vehicle>
    <vehicle id="44" depart="88.00">
        <route edges="26114719 -20886747#5 -20886747#4 -20886747#3 -20886747#2 -20886747#1 -20886747#0 20841904#1 20841904#2 39505602#14 39505602#15 39505602#16 39505602#17 39505602#18 207815699#0 207815699#1 207815699#2 23393526 8000035 26103749#0 26103749#1 8001091 544401976#0 544401976#1 544401976#2 544401976#3 544401976#4 544401976#5 544401976#6 146983132#0 146983132#1 146983132#2 7981159#0 7981159#1 14584727 170945231 294707644 39928380 450505893#0 450505893#1 114077388#0 114077388#1 114077388#2 114077388#3 114077388#4 114077388#5 114077388#6 114077388#7 114077388#8 114077388#9 114077388#10 114077388#11 180567954#1 180567954#2 180567954#3 180567954#4 196178587#0 196178587#1 196178587#2 196178587#3 196178587#4 249771233"/>
    </vehicle>
    <vehicle id="45" depart="90.00">
        <route edges="23400628 449716304 211200708 207822765 207822766#0 207822766#1 207822766#2 207822766#3 8000033 266815115 266815116#0 266815116#1 266815116#2 175111020#0 175111020#1 175111020#2 175111020#3 175111020#4 175111020#5 175111020#6 175111020#7 175111020#8 175111020#9 175111020#10 175111020#11 121815661#2 121815661#3 121815661#4 447719397#0 447719397#1 447719397#2 448213368#1 448213368#2 298599728#0"/>
    </vehicle>
    <vehicle id="46" depart="92.00">
        <route edges="231177038#1 366862512#1 366862512#2 32865023#12 32865023#13 447748358#0 447748358#1 447748358#2 447748358#3 447748358#4 447748358#5 448564072#0 448564072#1 23321627 41203238#0 41203238#1 518061196 518061197#0 518061197#1 13858477 450426777#0 450426777#1 450426777#2 450426777#3 450426777#4 450426777#5 450426777#6 450426777#7 450426777#8 450426777#9 450426777#10 450426777#11 450426777#12 450426777#13 450426777#14 13858427 149899927#0 149899927#1 149899927#2 149899927#3 149899927#4 149899927#5 149899927#6 443094736#0 443094736#1 448370087 33100801 351905024#0"/>
    </vehicle>
    <vehicle id="47" depart="94.00">
        <route edges="187874115#3 187874115#4 187874115#5 187874115#6 187874115#7 187874115#8 92190162#0 92190162#1 92190162#2 92190162#3 449485951#0 449485951#1 250118219#0 250118219#1 250118219#2 250118219#3 250118219#4 35670955#0 35670955#1 232166777#7 232166777#8 232166777#9 232166777#10 232166777#11 232166777#12 232166777#13 121815630#0 121815630#1 121815630#2 121815630#3 121815630#4 121815630#5 121815630#6 121815630#7 121815630#8 121815630#9 121815630#10 121815630#11 294707645 446595216 41165750#0 41165750#1 41165750#2 23635124#0 23635124#1 23635124#2 450426777#0 450426777#1 450426777#2 450426777#3 450426777#4 450426777#5 450426777#6 450426777#7 450426777#8 450426777#9 450426777#10 450426777#11 450426777#12 450426777#13 450426777#14 13858427 149899927#0 149899927#1 149899927#2 149899927#3 149899927#4 149899927#5 149899927#6 453310654#1 453310654#2 21189483#2 21189483#3"/>
    </vehicle>
    <vehicle id="48" depart="96.00">
        <route edges="-197927802 52101455#4 52101455#5 52101455#6 108852603#6 108852603#7 448217172 448217173 242669435#0 242669435#1 242669435#2 242669436#0 242669436#1 41764798#4 41764798#5 448515627#0 448515627#1 448515627#2 415340023#8 415340023#9 215936722#0 215936722#1 121815630#2 121815630#3 121815630#4 121815630#5 121815630#6 121815630#7 121815630#8 121815630#9 121815630#10 207815533#0 108834521 146983135#1 146983135#2 146983135#3 30907946#0 121748551#0 121748551#1 121748551#2"/>
    </vehicle>
    <vehicle id="49" depart="98.00">
        <route edges="207815699#3 207815699#4 207815699#5 207815699#6 207815699#7 8000866#0 8000866#1 -509474852 -509474851 509474854#0 509474854#1 23389989#5 450426793#0 450426793#1 23393550 23389725#0 146983133#0"/>
    </vehicle>
    <vehicle id="50" depart="100.00">
        <route edges="207815533#0 207815533#1 207815533#2 207815533#3 294707644 39928380 450505893#0 450505893#1 114077388#0 114077388#1 114077388#2 114077388#3 114077388#4 114077388#5 114077388#6 114077388#7 114077388#8 114077388#9 114077388#10 114077388#11 114077388#12 114077388#13 114077388#14 114077388#15 114077388#16 114077388#17 232166777#12 232166777#13 108852616 108852595 92361438#0 92361438#1 92361438#2 92361438#3 92361438#4 447748358#0 447748358#1 447748358#2 447748358#3"/>
    </vehicle>
    <vehicle id="51" depart="102.00">
        <route edges="266815116#1 266815116#2 175111020#0 175111020#1 175111020#2 175111020#3 175111020#4 175111020#5 175111020#6 175111020#7 175111020#8 175111020#9 448736027#6 448736027#7 448736027#8 407593364 223300795#11 23321898#0"/>
    </vehicle>
    <vehicle id="52" depart="104.00">
        <route edges="194058533 146983147#0 146983147#1 444825658#0 444825658#1 444825658#2 11490172#0 11490172#1 11490172#2 11490172#3 11490172#4 11490172#5 11490172#6 11490172#7 447281176 42118505 108852607 8000232#2 415340023#0 415340023#1 415340023#2 415340023#3 415340023#4 415340023#5 415340023#6 415340023#7 -448515627#2 -448515627#1 -448515627#0 -41764798#5 -41764798#4 -41764798#3 -41764798#2 -41764798#1 -41764798#0 13858323#0 13858323#1 13858323#2 24444473#14 24444473#15 24444473#16 24444473#17"/>
    </vehicle>
    <vehicle id="53" depart="106.00">
        <route edges="32865023#8 32865023#9 242669436#0 242669436#1 41764798#4 41764798#5 448515627#0 448515627#1 448515627#2 415340023#8 415340023#9 215936722#0 215936722#1 121815630#2 -40219211 40219211"/>
    </vehicle>
    <vehicle id="54" depart="108.00">
        <route edges="197927803 157032684#9 23401446#18 23401446#19 23401446#20 32865023#5 32865023#6 32865023#7 32865023#8 32865023#9 32865023#10 32865023#11 32865023#12 32865023#13 447748358#0 447748358#1 447748358#2 447748358#3 447748358#4 447748358#5 448564072#0 448564072#1 23321627 41203238#0 41203238#1 518061196 518061197#0 518061197#1 13858477 448211149 444825660#0 444825660#1 444825660#2 544401977 -23389989#3 8001091 544401976#0 544401976#1 544401976#2 544401976#3"/>
    </vehicle>
    <vehicle id="55" depart="110.00">
        <route edges="257623914 519185500 23400435#0 23400435#1 33101449#0 33101449#1 23400754#1 23400754#2 23400754#3 450457592#2"/>
    </vehicle>
    <vehicle id="56" depart="112.00">
        <route edges="447594410#1 447594410#2 175111020#0 175111020#1 175111020#2 175111020#3 175111020#4 175111020#5 175111020#6 175111020#7 175111020#8 175111020#9 448736027#6 448736027#7 448736027#8 407593364 223300795#11 23321898#0 23321898#1 23321897#2 23321897#3 449284320#1"/>
    </vehicle>
    <vehicle id="57" depart="114.00">
        <route edges="-448515627#2 -448515627#1 -448515627#0 -41764798#5 -41764798#4 -41764798#3 -41764798#2 -41764798#1 -41764798#0 13858323#0 13858323#1 13858323#2 13858323#3 447077625#4 447077625#5 448180366#0 24444473#11"/>
    </vehicle>
    <vehicle id="58" depart="116.00">
        <route edges="448172715#10 23401134#7 23401134#8 450432644#13 252558982#0 252558982#1 252558982#2 252558982#3 252558982#4 252558982#5 252558982#6 208159358 32841147#1 32841147#2 32841147#3 32841147#4 32841147#5 189256411#0 189256411#1 189256411#2 41106674 32841186#2 32839907 272695536#0 272695536#1 32839917#0 32839917#1 27989210#0 27989211 24445993#0 24445993#1 47879673 -47879673"/>
    </vehicle>
    <vehicle id="59" depart="118.00">
        <route edges="33100804#0 -303126327#2 -303126327#1 508533726#2 450504156#5 450504156#6 450504156#7 450504156#8 450504156#9 450504156#10 450504156#11 450504156#12 450504156#13 278765389#0 278765389#1 208499130 447744765#0 447744765#1 447744765#2 445519010#0 445519010#1 445519010#2 445530544#0 445530544#1 445530544#2 445530544#3 445530544#4 445545294#0 32840250#0 32840250#1 13920356#0 13920356#1 13920356#2 13920356#3 338566197 156898441#0 156898441#1 156898441#2 156898441#3 108852603#0 108852603#1 108852603#2 108852603#3 108852603#4 518091963#4 518091963#5 448396053#15 448396053#16"/>
    </vehicle>
    <vehicle id="60" depart="120.00">
        <route edges="-303126327#1 508533726#2 450504156#5 450504156#6 450504156#7 450504156#8 33100732 462225138 462225140 175111023#0 175111023#1 175111023#2 175111023#3 175111023#4 447594410#0 447594410#1 447594410#2 175111020#0 175111020#1 175111020#2 175111020#3 175111020#4 175111020#5 175111020#6 175111020#7 175111020#8 175111020#9 448736027#6 448736027#7 448736027#8 407593364 223300795#11 23321898#0 23321898#1 23321898#2 23321898#3 23321898#4 23404793#1 23404793#2 518091963#2 23400886#7"/>
    </vehicle>
    <vehicle id="61" depart="122.00">
        <route edges="13870106#4 13870106#5 13870106#6 20896107#1 20896107#2 20896107#3 20896107#4 20896107#5 8001055#11 8001055#12 8001055#13 8001055#14 8001055#15 446606611 250118215#0 250118215#1 250118215#2 250118215#3 121747190#1 121747182#0 121747182#1 447077625#0 447077625#1 447077625#2 447077625#3 447077625#4 448180364#0 24444473#13 24444473#14 24444473#15"/>
    </vehicle>
    <vehicle id="62" depart="124.00">
        <route edges="20841915#10 39505598#3 39505598#4 38620057#0 38620057#1 38620058#0 448370824#7 448370824#8 448370824#9 146983133#0 146983133#1 146983133#2 -509474852 -509474851 -444825663#1 -444825663#0 -23389989#3 8001091 544401976#0 544401976#1 544401976#2 544401976#3 544401976#4 544401976#5 544401976#6 146983132#0 146983132#1 146983132#2 7981159#0 7981159#1 14584727 170945231 294707644 39928380 450505893#0 450505893#1 201704217#0 201704217#1 201704217#2 449631293 453344277#0 453344277#1 442113157 178547498#0 178547498#1 178547498#2 314247299"/>
    </vehicle>
    <vehicle id="63" depart="126.00">